                                  MODFLOW-NWT      
      U.S. GEOLOGICAL SURVEY MODULAR FINITE-DIFFERENCE GROUNDWATER-FLOW MODEL
                            VERSION 1.0.5 05/14/2012
                    BASED ON MODFLOW-2005 VERSION 1.9.01 05/01/2012

 LIST FILE: mf_1000.lst
                         UNIT 5011

 OPENING mf_1000.cbc
 FILE TYPE:DATA(BINARY)   UNIT 5009   STATUS:UNKNOWN
 FORMAT:BINARY                 ACCESS:SEQUENTIAL          

 OPENING mf_1000.dis
 FILE TYPE:DIS   UNIT 5012   STATUS:OLD    
 FORMAT:FORMATTED              ACCESS:SEQUENTIAL          

 OPENING mf_1000.bas
 FILE TYPE:BAS6   UNIT 5013   STATUS:OLD    
 FORMAT:FORMATTED              ACCESS:SEQUENTIAL          

 OPENING mf_1000.oc
 FILE TYPE:OC   UNIT 5039   STATUS:OLD    
 FORMAT:FORMATTED              ACCESS:SEQUENTIAL          

 OPENING mf_1000.fhd
 FILE TYPE:DATA   UNIT 5037   STATUS:UNKNOWN
 FORMAT:FORMATTED              ACCESS:SEQUENTIAL          

 OPENING mf_1000.fdn
 FILE TYPE:DATA   UNIT 5038   STATUS:UNKNOWN
 FORMAT:FORMATTED              ACCESS:SEQUENTIAL          

 OPENING mf_1000.nwt
 FILE TYPE:NWT   UNIT 5133   STATUS:OLD    
 FORMAT:FORMATTED              ACCESS:SEQUENTIAL          

 OPENING mf_1000.upw
 FILE TYPE:UPW   UNIT 5134   STATUS:OLD    
 FORMAT:FORMATTED              ACCESS:SEQUENTIAL          

 OPENING mf_1000.riv
 FILE TYPE:RIV   UNIT 5021   STATUS:OLD    
 FORMAT:FORMATTED              ACCESS:SEQUENTIAL          

 OPENING mf_1000.rch
 FILE TYPE:RCH   UNIT 5024   STATUS:OLD    
 FORMAT:FORMATTED              ACCESS:SEQUENTIAL          
# EVT     5025    mf_1000.evt OLD                                                                                                                                                                                                                                                                           

 OPENING mf_1000.zon
 FILE TYPE:ZONE   UNIT 5015   STATUS:OLD    
 FORMAT:FORMATTED              ACCESS:SEQUENTIAL          

 OPENING mf_1000.pval
 FILE TYPE:PVAL   UNIT 5052   STATUS:OLD    
 FORMAT:FORMATTED              ACCESS:SEQUENTIAL          

 BAS -- BASIC PACKAGE, VERSION 7, 5/2/2005 INPUT READ FROM UNIT 5013
 
 MODFLOW was compiled using mixed precision
 Precision of REAL variables:           6
 Precision of DOUBLE PRECISION variables:          15

 DISCRETIZATION INPUT DATA READ FROM UNIT 5012
 # Discretization File created on 2/4/2022 by ModelMuse version 4.3.0.0.
 # MODFLOW model 300 meter grid for SWAT model
 # Upper left corner: (-169181.134199999, 952625.5168)
 # Lower left corner: (-169181.134199999, 929625.5168)
 # Upper right corner: (-129181.134199999, 952625.5168)
 # Lower right corner: (-129181.134199999, 929625.5168)
 # Grid angle (in degrees counterclockwise): 0
    1 LAYERS        23 ROWS        40 COLUMNS
    1 STRESS PERIOD(S) IN SIMULATION
 MODEL TIME UNIT IS DAYS
 MODEL LENGTH UNIT IS METERS
  Confining bed flag for each layer:
   0

                     DELR =   1000.00    

                     DELC =   1000.00    



           TOP ELEVATION OF LAYER 1
 READING ON UNIT 5012 WITH FORMAT: (FREE)              

            1           2           3           4           5           6           7           8           9          10
           11          12          13          14          15          16          17          18          19          20
           21          22          23          24          25          26          27          28          29          30
           31          32          33          34          35          36          37          38          39          40
 ........................................................................................................................
   1    361.0       352.8       345.2       341.3       334.2       329.4       328.5       328.2       329.2       327.2    
        313.6       309.1       304.6       300.2       296.0       292.3       289.0       286.5       284.9       284.2    
        284.7       286.5       289.7       290.7       285.0       279.6       281.4       288.2       285.5       275.8    
        262.1       247.5       235.0       228.3       231.9       233.9       234.7       236.0       239.5       245.1    
   2    363.6       350.0       344.4       338.2       325.8       317.7       308.8       315.0       314.4       319.6    
        319.6       315.4       310.6       309.8       312.4       311.6       304.4       294.2       285.8       287.0    
        293.2       273.4       276.0       275.6       270.9       268.9       276.4       281.3       277.2       267.3    
        254.6       242.0       232.6       231.6       233.7       233.8       233.8       235.1       239.4       242.2    
   3    361.6       352.1       341.2       336.5       327.2       335.4       327.4       312.9       297.6       303.4    
        299.7       303.0       300.7       297.3       296.5       301.9       297.2       290.5       281.2       282.0    
        272.2       273.1       263.3       268.2       268.6       260.8       271.5       274.3       269.4       259.7    
        248.3       238.2       232.3       233.9       233.8       232.7       232.2       234.0       237.6       237.7    
   4    361.3       357.1       346.4       338.7       339.2       329.5       321.9       319.7       316.3       293.6    
        276.0       292.1       297.1       280.9       291.0       293.8       287.6       279.2       269.1       266.5    
        263.0       258.3       254.4       255.7       252.1       249.7       260.9       260.6       262.1       253.1    
        243.4       236.1       234.6       234.5       232.7       230.7       230.3       232.9       233.8       232.0    
   5    360.6       356.5       352.5       355.2       348.9       342.3       330.4       323.9       306.7       313.5    
        307.5       272.4       277.5       257.4       261.6       264.0       275.5       259.2       270.2       254.7    
        252.4       247.0       236.0       233.9       233.5       239.4       245.7       255.9       252.8       244.3    
        239.9       235.9       235.7       233.5       230.4       228.2       228.3       230.0       228.7       225.8    
   6    359.7       355.6       351.8       349.1       347.9       343.5       332.4       328.6       324.7       317.9    
        303.1       307.9       306.5       296.9       285.4       258.5       279.8       280.9       280.6       283.2    
        276.7       269.2       255.3       240.5       242.6       219.5       236.4       237.4       236.2       229.7    
        233.0       234.3       233.8       231.2       227.4       225.3       226.1       225.3       223.0       220.2    
   7    358.7       354.6       350.8       347.1       348.1       344.7       342.5       335.7       322.4       315.6    
        316.9       317.3       303.1       290.9       276.1       284.7       295.1       294.1       289.8       279.8    
        271.1       259.4       257.8       261.5       252.3       242.5       225.5       212.2       228.2       226.1    
        220.5       230.4       228.0       228.5       224.1       222.3       222.0       220.2       217.9       215.1    
   8    357.4       353.4       349.6       346.0       342.6       345.0       339.1       340.7       328.7       323.8    
        310.0       300.8       300.8       273.8       297.8       303.0       295.6       286.8       283.9       279.2    
        271.0       265.1       274.5       268.4       253.8       243.7       236.8       230.2       209.1       204.5    
        206.7       220.5       216.0       218.7       220.1       219.7       217.4       215.6       213.3       209.2    
   9    356.0       352.1       348.3       344.7       341.3       338.1       334.5       335.8       334.7       327.3    
        317.4       313.8       296.6       301.4       305.0       305.1       292.0       281.7       279.6       274.6    
        272.7       278.0       273.3       263.2       261.1       261.6       253.0       240.8       230.4       222.6    
        197.8       213.0       206.4       202.0       213.4       208.8       214.6       211.5       208.5       204.8    
  10    354.4       350.5       346.8       343.2       339.9       337.0       335.3       328.9       324.1       323.5    
        319.3       307.7       300.4       316.5       313.9       304.9       293.1       292.7       289.3       287.3    
        285.9       276.9       272.7       268.2       255.8       246.4       242.0       240.2       226.4       214.6    
        215.2       198.4       195.7       189.1       199.7       204.7       210.2       207.7       204.9       207.4    
  11    352.6       348.7       345.0       341.6       338.1       340.8       339.7       334.6       324.7       317.8    
        314.6       312.9       311.3       322.2       314.2       303.1       295.5       299.2       286.0       285.0    
        276.7       269.0       261.5       258.4       256.5       257.1       247.0       229.6       224.6       230.4    
        222.4       215.3       207.6       204.9       189.1       195.4       201.6       202.3       201.8       202.7    
  12    350.6       346.8       343.2       338.8       345.0       348.5       348.1       342.6       330.3       320.1    
        325.0       323.4       324.2       320.3       309.7       303.0       294.8       293.6       289.8       272.3    
        266.0       256.6       247.6       242.2       237.8       239.2       235.6       233.0       240.8       226.5    
        216.0       221.4       213.5       199.8       198.9       184.6       193.5       193.9       194.6       197.2    
  13    348.5       344.7       339.0       348.0       356.2       360.3       360.3       347.7       336.0       325.5    
        316.0       330.2       321.4       316.8       315.1       307.6       305.9       289.7       283.4       273.3    
        265.3       268.4       266.2       268.2       249.1       251.1       243.5       249.8       241.4       224.0    
        227.4       223.3       210.3       206.7       201.0       194.6       183.8       184.7       183.2       190.3    
  14    345.8       338.8       349.7       362.5       371.4       376.1       365.5       353.1       342.0       331.9    
        322.8       314.5       310.6       322.7       304.8       303.6       299.7       287.3       279.1       272.6    
        269.0       280.7       271.8       265.6       261.8       265.0       247.9       251.2       240.0       225.8    
        235.2       225.0       211.8       222.3       212.8       206.5       190.0       176.9       175.0       177.2    
  15    338.2       350.2       367.7       381.1       390.6       383.6       370.5       358.7       348.1       338.4    
        329.6       321.6       314.2       307.4       312.8       304.2       291.6       286.1       285.8       281.8    
        285.8       277.4       266.4       262.0       258.1       259.3       257.3       248.1       234.1       234.4    
        237.0       230.0       211.2       225.8       218.4       198.9       193.4       194.7       175.1       169.8    
  16    349.5       371.6       389.7       403.7       403.1       388.2       375.8       364.5       354.2       344.9    
        336.4       328.5       321.3       314.6       308.3       305.0       306.1       301.4       288.6       283.5    
        282.9       270.1       267.3       265.8       253.4       247.6       243.5       239.7       233.2       247.1    
        236.6       223.5       218.7       224.3       213.1       216.3       207.3       190.4       198.2       184.3    
  17    374.2       397.0       415.7       423.2       406.2       393.1       381.2       370.4       360.5       351.4    
        343.1       335.4       328.3       321.6       315.3       309.4       303.7       292.6       300.6       291.1    
        281.2       273.5       276.3       263.7       260.6       250.7       249.6       241.3       250.9       245.7    
        239.4       230.2       228.1       230.1       225.8       215.9       204.9       190.0       202.9       188.5    
  18    403.0       426.4       442.0       424.5       410.7       398.1       386.7       376.3       366.7       357.9    
        349.7       342.2       335.1       328.4       322.1       316.1       310.3       304.7       296.6       294.8    
        286.6       281.3       273.8       264.3       262.5       260.1       254.3       251.5       249.2       243.8    
        238.4       226.2       232.5       226.6       221.0       213.1       202.5       207.9       199.4       191.3    
  19    435.8       458.6       444.1       428.6       415.4       403.4       392.4       382.3       373.0       364.3    
        356.3       348.8       341.7       335.0       328.7       322.5       316.6       310.8       305.0       299.1    
        291.4       282.3       276.2       273.1       263.1       262.0       256.3       253.7       245.5       235.6    
        233.2       237.7       230.3       219.5       214.0       213.7       212.4       208.1       201.7       194.2    
  20    472.5       465.9       446.8       432.9       420.3       408.7       398.1       388.2       379.1       370.7    
        362.7       355.2       348.2       341.4       335.0       328.7       322.6       316.5       310.4       304.3    
        297.9       281.4       276.7       273.6       269.0       262.2       259.1       253.2       249.9       245.7    
        241.9       233.4       226.4       229.8       221.2       222.5       215.8       210.6       204.9       197.7    
  21    488.0       465.3       450.8       437.5       425.3       414.1       403.8       394.2       385.2       376.9    
        369.0       361.5       354.4       347.6       341.0       334.6       328.2       321.9       315.5       308.9    
        302.2       295.0       287.4       275.2       269.5       265.9       257.9       256.0       247.7       249.7    
        239.5       234.2       237.4       230.8       226.1       224.1       219.3       213.6       207.8       202.2    
  22    484.8       468.9       455.0       442.2       430.4       419.5       409.4       400.0       391.2       382.9    
        375.1       367.6       360.4       353.5       346.7       340.1       333.5       326.8       320.1       313.1    
        305.8       298.1       289.9       280.9       270.7       262.5       257.0       252.7       252.2       247.2    
        241.3       238.6       236.0       231.0       228.0       228.5       223.6       217.5       210.6       205.2    
  23    487.3       472.7       459.3       447.0       435.6       425.0       415.1       405.8       397.1       388.8    
        381.0       373.4       366.2       359.1       352.1       345.2       338.4       331.4       324.2       316.8    
        309.0       300.6       291.6       281.8       270.7       266.1       262.4       259.3       255.5       248.7    
        244.8       243.6       239.7       234.7       230.7       229.8       228.6       222.2       214.9       206.9    



             MODEL LAYER BOTTOM EL. FOR LAYER   1
 READING ON UNIT 5012 WITH FORMAT: (FREE)              

            1           2           3           4           5           6           7           8           9          10
           11          12          13          14          15          16          17          18          19          20
           21          22          23          24          25          26          27          28          29          30
           31          32          33          34          35          36          37          38          39          40
 ........................................................................................................................
   1    336.2       332.3       329.9       327.0       322.8       319.7       317.0       313.1       310.2       307.4    
        304.2       300.4       297.1       293.1       292.3       287.5       281.3       272.0       272.0       266.2    
        262.8       255.4       253.5       249.5       249.5       240.6       236.7       236.7       229.8       216.1    
        216.1       216.1       206.2       206.2       206.2       206.2       202.2       191.2       191.2       191.2    
   2    335.8       332.1       329.8       326.9       322.7       316.7       307.8       313.0       310.3       307.1    
        303.2       300.3       297.1       292.8       289.5       286.0       281.3       276.6       272.0       266.2    
        262.8       255.4       253.5       249.5       242.7       240.6       236.7       235.0       227.1       216.1    
        216.1       206.2       206.2       206.2       206.2       202.2       195.1       191.2       191.2       191.2    
   3    333.6       332.0       329.6       326.8       322.6       319.7       316.9       311.9       296.6       302.4    
        298.7       300.2       297.0       292.6       289.1       285.5       280.8       276.5       271.8       266.0    
        261.9       257.1       251.7       247.8       242.7       236.7       235.0       229.8       220.5       216.1    
        216.1       206.2       206.2       206.2       202.2       202.2       191.2       191.2       191.2       191.2    
   4    332.8       330.8       329.5       326.6       322.5       319.6       316.9       313.0       310.3       292.6    
        275.0       291.1       297.0       279.9       288.8       285.1       280.2       275.8       268.1       265.4    
        261.5       257.1       251.7       247.6       243.4       236.6       230.9       227.1       220.5       216.1    
        216.1       206.2       206.2       205.5       202.2       195.1       191.2       191.2       191.2       191.2    
   5    329.9       329.9       329.2       326.1       322.5       319.6       317.0       313.1       305.7       307.0    
        303.0       271.4       276.5       256.4       260.6       263.0       274.5       258.2       269.2       253.7    
        251.4       246.0       235.0       232.9       232.5       236.9       231.6       226.9       220.7       216.1    
        212.2       206.2       205.5       202.2       202.2       195.1       191.2       191.2       191.2       191.2    
   6    329.9       329.2       329.2       324.1       322.3       319.6       317.2       313.3       310.4       307.3    
        303.0       299.8       296.4       291.6       284.4       257.5       278.7       274.6       269.9       264.8    
        261.2       257.4       252.3       239.5       241.6       218.5       232.3       227.8       221.8       217.4    
        212.6       206.7       203.1       202.2       195.1       191.2       191.2       191.2       191.2       187.3    
   7    329.2       329.2       326.1       322.3       320.4       319.8       317.3       313.5       310.5       307.5    
        303.1       299.7       296.1       289.9       275.1       283.2       278.1       274.1       269.6       264.6    
        261.0       257.1       252.1       248.0       243.8       237.6       224.5       211.2       222.7       218.5    
        213.8       207.9       203.8       199.9       195.1       191.2       191.2       188.6       187.3       183.4    
   8    329.2       329.2       320.5       320.5       320.5       320.2       317.6       313.7       310.7       307.7    
        303.2       299.5       295.6       272.8       286.6       282.4       277.3       273.5       269.2       264.2    
        260.5       256.5       251.4       247.5       243.6       237.8       233.3       229.1       208.1       203.5    
        205.7       209.2       205.3       201.0       195.3       191.2       188.6       187.3       183.4       175.8    
   9    329.2       320.5       320.5       320.5       319.0       319.0       317.7       313.9       310.9       307.8    
        303.2       299.4       295.4       290.1       286.0       281.9       276.7       272.9       269.1       263.9    
        260.1       256.2       250.9       247.0       243.3       237.7       233.5       229.3       223.5       219.5    
        196.8       210.0       206.0       201.7       195.7       191.3       187.0       183.4       175.8       175.8    
  10    320.5       320.5       319.0       319.0       318.3       318.3       316.7       314.2       311.1       307.9    
        303.1       299.2       295.0       289.5       285.5       281.6       276.3       272.4       268.8       263.6    
        259.5       255.8       250.5       246.5       242.9       237.4       233.3       229.2       223.5       213.6    
        214.2       197.4       194.7       188.1       195.9       191.4       186.5       180.2       175.8       171.6    
  11    319.0       319.0       318.3       318.3       318.3       318.3       314.8       312.9       311.2       308.0    
        303.0       298.9       294.3       288.9       284.9       281.2       275.8       271.9       268.4       263.1    
        259.0       255.2       250.0       246.2       242.3       236.9       232.8       228.8       223.2       219.3    
        215.4       210.3       206.3       202.1       188.1       191.2       185.9       178.9       172.9       171.4    
  12    318.3       318.3       318.3       318.3       318.3       314.8       312.9       312.9       309.8       308.0    
        303.0       298.7       294.3       288.6       284.7       280.8       275.5       271.6       268.0       262.5    
        258.5       254.7       246.6       241.2       236.8       236.4       232.4       228.5       223.1       219.0    
        215.3       210.2       206.2       198.8       195.9       183.6       185.7       178.4       172.5       170.5    
  13    318.3       318.3       318.3       318.3       312.9       312.9       312.9       312.9       308.0       305.3    
        302.7       298.6       287.9       287.9       284.2       280.6       275.3       271.2       267.5       262.0    
        258.0       254.2       249.1       245.2       241.3       235.8       231.9       228.0       222.7       218.7    
        215.0       209.8       205.9       201.8       195.6       190.6       182.8       177.9       171.8       168.6    
  14    318.3       318.3       318.3       312.9       312.9       312.9       312.9       309.8       308.0       302.7    
        302.7       298.6       287.9       287.9       283.3       279.6       274.8       270.7       266.8       261.3    
        257.4       253.6       248.4       244.5       240.6       235.2       231.2       227.3       221.9       218.1    
        214.3       209.2       205.3       201.2       195.1       190.0       184.7       175.9       170.9       166.0    
  15    318.3       318.3       312.9       312.9       312.9       312.9       312.9       308.0       305.3       302.7    
        302.7       298.6       287.9       279.7       279.7       278.4       274.4       270.3       266.3       260.9    
        257.1       253.3       248.3       244.2       240.2       234.6       230.6       226.6       221.4       217.6    
        213.8       208.7       204.8       200.5       194.6       189.5       184.2       176.7       170.4       164.9    
  16    318.3       312.9       312.9       312.9       312.9       312.9       312.9       308.0       302.7       302.7    
        302.7       298.6       279.7       278.0       278.0       278.0       274.8       270.0       266.0       260.8    
        256.9       253.2       248.0       243.9       239.8       234.1       230.1       226.1       220.9       217.2    
        213.3       208.2       204.2       199.8       194.0       188.9       183.9       176.2       170.3       164.9    
  17    312.9       312.9       312.9       312.9       312.9       312.9       308.0       305.3       302.7       302.7    
        302.7       278.0       278.0       278.0       278.0       275.4       270.8       268.2       266.2       260.3    
        256.6       252.9       247.6       243.4       239.3       233.7       229.6       225.7       220.7       216.9    
        213.0       207.7       203.6       199.1       193.3       188.3       183.4       175.9       172.6       170.6    
  18    312.9       312.9       312.9       312.9       312.9       312.9       308.0       302.7       302.7       302.7    
        278.0       278.0       278.0       278.0       278.0       275.4       268.2       268.2       266.2       259.0    
        256.5       252.6       247.3       243.2       239.1       233.5       229.5       225.6       220.7       216.9    
        213.0       207.5       203.3       198.9       192.9       187.8       183.2       176.3       174.1       174.1    
  19    312.9       312.9       312.9       312.9       312.9       312.9       305.3       302.7       302.7       302.7    
        278.0       278.0       278.0       278.0       275.4       268.2       268.2       268.2       259.0       257.5    
        255.9       252.1       247.1       243.1       238.9       233.3       229.4       225.6       220.7       216.9    
        213.0       207.4       203.1       198.8       192.6       187.7       183.0       178.0       176.3       176.3    
  20    312.9       312.9       312.9       312.9       312.9       308.0       302.7       302.7       302.7       278.0    
        278.0       278.0       278.0       278.0       275.4       268.2       268.2       259.0       257.5       255.9    
        252.1       247.9       245.3       242.9       238.8       233.3       229.4       225.6       220.7       216.9    
        213.0       207.3       203.1       198.8       192.8       189.8       183.2       180.2       180.2       176.3    
  21    312.9       312.9       312.9       312.9       312.9       305.3       302.7       302.7       302.7       278.0    
        278.0       278.0       278.0       275.4       268.2       268.2       268.2       257.5       255.9       255.9    
        252.1       245.3       244.0       242.8       238.9       233.5       229.6       225.7       220.7       217.0    
        213.0       207.4       203.4       198.9       193.3       191.7       189.8       180.2       180.2       180.2    
  22    312.9       312.9       312.9       312.9       308.0       302.7       302.7       302.7       278.0       278.0    
        278.0       278.0       278.0       275.4       268.2       268.2       257.5       255.9       255.9       255.9    
        244.0       244.0       242.7       241.1       239.1       233.6       229.8       225.9       220.8       217.0    
        213.1       207.6       205.5       202.0       193.3       193.3       191.7       180.2       180.2       180.2    
  23    312.9       312.9       312.9       312.9       305.3       302.7       302.7       278.0       278.0       278.0    
        278.0       278.0       275.4       268.2       268.2       268.2       255.9       255.9       255.9       244.0    
        244.0       242.7       241.1       238.9       236.0       233.8       229.9       226.8       220.7       217.0    
        213.3       212.4       205.5       205.5       193.3       193.3       193.3       191.7       180.2       180.2    


 STRESS PERIOD     LENGTH       TIME STEPS     MULTIPLIER FOR DELT    SS FLAG
 ----------------------------------------------------------------------------
        1         10000.00      10000                    1.000         TR

 TRANSIENT SIMULATION



 
 # MODFLOW model 300 meter grid for SWAT model                                   
 # Basic Package file created on 2/4/2022 by ModelMuse version 4.3.0.0.          
 # Number of active cells = 710.
 THE FREE FORMAT OPTION HAS BEEN SELECTED
 THE PRINTTIME OPTION HAS BEEN SELECTED
 CALCULATE FLOW BETWEEN ADJACENT CONSTANT-HEAD CELLS



                     BOUNDARY ARRAY FOR LAYER   1
 READING ON UNIT 5013 WITH FORMAT: (FREE)              

          1     2     3     4     5     6     7     8     9    10    11    12    13    14    15    16    17    18    19    20
         21    22    23    24    25    26    27    28    29    30    31    32    33    34    35    36    37    38    39    40
 ............................................................................................................................
   1      1     1     1     1     1     1     1     1     1     1     1     1     1     1     1     1     1     1     1     1
          1     1     1     1     1     1     1     0     0     0     0     0     0     0     0     0     0     0     0     0
   2      1     1     1     1     1     1     1     1     1     1     1     1     1     1     1     1     1     1     1     1
          1     1     1     1     1     1     1     1     1     1     1     1     0     0     0     0     0     0     0     0
   3      1     1     1     1     1     1     1     1     1     1     1     1     1     1     1     1     1     1     1     1
          1     1     1     1     1     1     1     1     1     1     1     1     1     0     0     0     0     0     0     0
   4      1     1     1     1     1     1     1     1     1     1     1     1     1     1     1     1     1     1     1     1
          1     1     1     1     1     1     1     1     1     1     1     1     1     1     0     0     0     0     0     0
   5      1     1     1     1     1     1     1     1     1     1     1     1     1     1     1     1     1     1     1     1
          1     1     1     1     1     1     1     1     1     1     1     1     1     1     1     1     0     0     0     0
   6      1     1     1     1     1     1     1     1     1     1     1     1     1     1     1     1     1     1     1     1
          1     1     1     1     1     1     1     1     1     1     1     1     1     1     1     1     1     0     0     0
   7      1     1     1     1     1     1     1     1     1     1     1     1     1     1     1     1     1     1     1     1
          1     1     1     1     1     1     1     1     1     1     1     1     1     1     1     1     1     1     0     0
   8      1     1     1     1     1     1     1     1     1     1     1     1     1     1     1     1     1     1     1     1
          1     1     1     1     1     1     1     1     1     1     1     1     1     1     1     1     1     1     1     0
   9      0     1     1     1     1     1     1     1     1     1     1     1     1     1     1     1     1     1     1     1
          1     1     1     1     1     1     1     1     1     1     1     1     1     1     1     1     1     1     1     1
  10      0     0     0     1     1     1     1     1     1     1     1     1     1     1     1     1     1     1     1     1
          1     1     1     1     1     1     1     1     1     1     1     1     1     1     1     1     1     1     1     1
  11      0     0     0     0     1     1     1     1     1     1     1     1     1     1     1     1     1     1     1     1
          1     1     1     1     1     1     1     1     1     1     1     1     1     1     1     1     1     1     1     1
  12      0     0     0     0     0     0     1     1     1     1     1     1     1     1     1     1     1     1     1     1
          1     1     1     1     1     1     1     1     1     1     1     1     1     1     1     1     1     1     1     1
  13      0     0     0     0     0     0     0     1     1     1     1     1     1     1     1     1     1     1     1     1
          1     1     1     1     1     1     1     1     1     1     1     1     1     1     1     1     1     1     1     1
  14      0     0     0     0     0     0     0     0     0     1     1     1     1     1     1     1     1     1     1     1
          1     1     1     1     1     1     1     1     1     1     1     1     1     1     1     1     1     1     1     1
  15      0     0     0     0     0     0     0     0     0     0     1     1     1     1     1     1     1     1     1     1
          1     1     1     1     1     1     1     1     1     1     1     1     1     1     1     1     1     1     1     1
  16      0     0     0     0     0     0     0     0     0     0     0     1     1     1     1     1     1     1     1     1
          1     1     1     1     1     1     1     1     1     1     1     1     1     1     1     1     1     1     1     1
  17      0     0     0     0     0     0     0     0     0     0     0     0     0     1     1     1     1     1     1     1
          1     1     1     1     1     1     1     1     1     1     1     1     1     1     1     1     1     1     1     1
  18      0     0     0     0     0     0     0     0     0     0     0     0     0     1     1     1     1     1     1     1
          1     1     1     1     1     1     1     1     1     1     1     1     1     1     1     1     1     1     1     1
  19      0     0     0     0     0     0     0     0     0     0     0     0     0     0     1     1     1     1     1     1
          1     1     1     1     1     1     1     1     1     1     1     1     1     1     1     1     1     1     1     1
  20      0     0     0     0     0     0     0     0     0     0     0     0     0     0     0     0     1     1     1     1
          1     1     1     1     1     1     1     1     1     1     1     1     1     1     1     1     1     1     1     1
  21      0     0     0     0     0     0     0     0     0     0     0     0     0     0     0     0     0     1     1     1
          1     1     1     1     1     1     1     1     1     1     1     1     1     1     1     1     1     1     1     1
  22      0     0     0     0     0     0     0     0     0     0     0     0     0     0     0     0     0     0     0     1
          1     1     1     1     1     1     1     1     1     1     1     1     1     1     1     1     1     1     1     0
  23      0     0     0     0     0     0     0     0     0     0     0     0     0     0     0     0     0     0     0     0
          0     1     1     1     1     1     1     1     1     1     1     1     1     1     1     1     1     1     1     0

 AQUIFER HEAD WILL BE SET TO -2.00000E+20 AT ALL NO-FLOW NODES (IBOUND=0).



                       INITIAL HEAD FOR LAYER   1
 READING ON UNIT 5013 WITH FORMAT: (FREE)              

            1           2           3           4           5           6           7           8           9          10
           11          12          13          14          15          16          17          18          19          20
           21          22          23          24          25          26          27          28          29          30
           31          32          33          34          35          36          37          38          39          40
 ........................................................................................................................
   1    360.0       351.8       344.2       340.3       333.2       328.4       327.5       327.2       328.2       326.2    
        312.6       308.1       303.6       299.2       295.0       291.3       288.0       285.5       283.9       283.2    
        283.7       285.5       288.7       289.7       284.0       278.6       280.4       287.2       284.5       274.8    
        261.1       246.5       234.0       227.3       230.9       232.9       233.7       235.0       238.5       244.1    
   2    362.6       349.0       343.4       337.2       324.8       316.7       307.8       314.0       313.4       318.6    
        318.6       314.4       309.6       308.8       311.4       310.6       303.4       293.2       284.8       286.0    
        292.2       272.4       275.0       274.6       269.9       267.9       275.4       280.3       276.2       266.3    
        253.6       241.0       231.6       230.6       232.7       232.8       232.8       234.1       238.4       241.2    
   3    360.6       351.1       340.2       335.5       326.2       334.4       326.4       311.9       296.6       302.4    
        298.7       302.0       299.7       296.3       295.5       300.9       296.2       289.5       280.2       281.0    
        271.2       272.1       262.3       267.2       267.6       259.8       270.5       273.3       268.4       258.7    
        247.3       237.2       231.3       232.9       232.8       231.7       231.2       233.0       236.6       236.7    
   4    360.3       356.1       345.4       337.7       338.2       328.5       320.9       318.7       315.3       292.6    
        275.0       291.1       296.1       279.9       290.0       292.8       286.6       278.2       268.1       265.5    
        262.0       257.3       253.4       254.7       251.1       248.7       259.9       259.6       261.1       252.1    
        242.4       235.1       233.6       233.5       231.7       229.7       229.3       231.9       232.8       231.0    
   5    359.6       355.5       351.5       354.2       347.9       341.3       329.4       322.9       305.7       312.5    
        306.5       271.4       276.5       256.4       260.6       263.0       274.5       258.2       269.2       253.7    
        251.4       246.0       235.0       232.9       232.5       238.4       244.7       254.9       251.8       243.3    
        238.9       234.9       234.7       232.5       229.4       227.2       227.3       229.0       227.7       224.8    
   6    358.7       354.6       350.8       348.1       346.9       342.5       331.4       327.6       323.7       316.9    
        302.1       306.9       305.5       295.9       284.4       257.5       278.8       279.9       279.6       282.2    
        275.7       268.2       254.3       239.5       241.6       218.5       235.4       236.4       235.2       228.7    
        232.0       233.3       232.8       230.2       226.4       224.3       225.1       224.3       222.0       219.2    
   7    357.7       353.6       349.8       346.1       347.1       343.7       341.5       334.7       321.4       314.6    
        315.9       316.3       302.1       289.9       275.1       283.7       294.1       293.1       288.8       278.8    
        270.1       258.4       256.8       260.5       251.3       241.5       224.5       211.2       227.2       225.1    
        219.5       229.4       227.0       227.5       223.1       221.3       221.0       219.2       216.9       214.1    
   8    356.4       352.4       348.6       345.0       341.6       344.0       338.1       339.7       327.7       322.8    
        309.0       299.8       299.8       272.8       296.8       302.0       294.6       285.8       282.9       278.2    
        270.0       264.1       273.5       267.4       252.8       242.7       235.8       229.2       208.1       203.5    
        205.7       219.5       215.0       217.7       219.1       218.7       216.4       214.6       212.3       208.2    
   9    355.0       351.1       347.3       343.7       340.3       337.1       333.5       334.8       333.7       326.3    
        316.4       312.8       295.6       300.4       304.0       304.1       291.0       280.7       278.6       273.6    
        271.7       277.0       272.3       262.2       260.1       260.6       252.0       239.8       229.4       221.6    
        196.8       212.0       205.4       201.0       212.4       207.8       213.6       210.5       207.5       203.8    
  10    353.4       349.5       345.8       342.2       338.9       336.0       334.3       327.9       323.1       322.5    
        318.3       306.7       299.4       315.5       312.9       303.9       292.1       291.7       288.3       286.3    
        284.9       275.9       271.7       267.2       254.8       245.4       241.0       239.2       225.4       213.6    
        214.2       197.4       194.7       188.1       198.7       203.7       209.2       206.7       203.9       206.4    
  11    351.6       347.7       344.0       340.6       337.1       339.8       338.7       333.6       323.7       316.8    
        313.6       311.9       310.3       321.2       313.2       302.1       294.5       298.2       285.0       284.0    
        275.7       268.0       260.5       257.4       255.5       256.1       246.0       228.6       223.6       229.4    
        221.4       214.3       206.6       203.9       188.1       194.4       200.6       201.3       200.8       201.7    
  12    349.6       345.8       342.2       337.8       344.0       347.5       347.1       341.6       329.3       319.1    
        324.0       322.4       323.2       319.3       308.7       302.0       293.8       292.6       288.8       271.3    
        265.0       255.6       246.6       241.2       236.8       238.2       234.6       232.0       239.8       225.5    
        215.0       220.4       212.5       198.8       197.9       183.6       192.5       192.9       193.6       196.2    
  13    347.5       343.7       338.0       347.0       355.2       359.3       359.3       346.7       335.0       324.5    
        315.0       329.2       320.4       315.8       314.1       306.6       304.9       288.7       282.4       272.3    
        264.3       267.4       265.2       267.2       248.1       250.1       242.5       248.8       240.4       223.0    
        226.4       222.3       209.3       205.7       200.0       193.6       182.8       183.7       182.2       189.3    
  14    344.8       337.8       348.7       361.5       370.4       375.1       364.5       352.1       341.0       330.9    
        321.8       313.5       309.6       321.7       303.8       302.6       298.7       286.3       278.1       271.6    
        268.0       279.7       270.8       264.6       260.8       264.0       246.9       250.2       239.0       224.8    
        234.2       224.0       210.8       221.3       211.8       205.5       189.0       175.9       174.0       176.2    
  15    337.2       349.2       366.7       380.1       389.6       382.6       369.5       357.7       347.1       337.4    
        328.6       320.6       313.2       306.4       311.8       303.2       290.6       285.1       284.8       280.8    
        284.8       276.4       265.4       261.0       257.1       258.3       256.3       247.1       233.1       233.4    
        236.0       229.0       210.2       224.8       217.4       197.9       192.4       193.7       174.1       168.8    
  16    348.5       370.6       388.7       402.7       402.1       387.2       374.8       363.5       353.2       343.9    
        335.4       327.5       320.3       313.6       307.3       304.0       305.1       300.4       287.6       282.5    
        281.9       269.1       266.3       264.8       252.4       246.6       242.5       238.7       232.2       246.1    
        235.6       222.5       217.7       223.3       212.1       215.3       206.3       189.4       197.2       183.3    
  17    373.2       396.0       414.7       422.2       405.2       392.1       380.2       369.4       359.5       350.4    
        342.1       334.4       327.3       320.6       314.3       308.4       302.7       291.6       299.6       290.1    
        280.2       272.5       275.3       262.7       259.6       249.7       248.6       240.3       249.9       244.7    
        238.4       229.2       227.1       229.1       224.8       214.9       203.9       189.0       201.9       187.5    
  18    402.0       425.4       441.0       423.5       409.7       397.1       385.7       375.3       365.7       356.9    
        348.7       341.2       334.1       327.4       321.1       315.1       309.3       303.7       295.6       293.8    
        285.6       280.3       272.8       263.3       261.5       259.1       253.3       250.5       248.2       242.8    
        237.4       225.2       231.5       225.6       220.0       212.1       201.5       206.9       198.4       190.3    
  19    434.8       457.6       443.1       427.6       414.4       402.4       391.4       381.3       372.0       363.3    
        355.3       347.8       340.7       334.0       327.7       321.5       315.6       309.8       304.0       298.1    
        290.4       281.3       275.2       272.1       262.1       261.0       255.3       252.7       244.5       234.6    
        232.2       236.7       229.3       218.5       213.0       212.7       211.4       207.1       200.7       193.2    
  20    471.5       464.9       445.8       431.9       419.3       407.7       397.1       387.2       378.1       369.7    
        361.7       354.2       347.2       340.4       334.0       327.7       321.6       315.5       309.4       303.3    
        296.9       280.4       275.7       272.6       268.0       261.2       258.1       252.2       248.9       244.7    
        240.9       232.4       225.4       228.8       220.2       221.5       214.8       209.6       203.9       196.7    
  21    487.0       464.3       449.8       436.5       424.3       413.1       402.8       393.2       384.2       375.9    
        368.0       360.5       353.4       346.6       340.0       333.6       327.2       320.9       314.5       307.9    
        301.2       294.0       286.4       274.2       268.5       264.9       256.9       255.0       246.7       248.7    
        238.5       233.2       236.4       229.8       225.1       223.1       218.3       212.6       206.8       201.2    
  22    483.8       467.9       454.0       441.2       429.4       418.5       408.4       399.0       390.2       381.9    
        374.1       366.6       359.4       352.5       345.7       339.1       332.5       325.8       319.1       312.1    
        304.8       297.1       288.9       279.9       269.7       261.5       256.0       251.7       251.2       246.2    
        240.3       237.6       235.0       230.0       227.0       227.5       222.6       216.5       209.6       204.2    
  23    486.3       471.7       458.3       446.0       434.6       424.0       414.1       404.8       396.1       387.8    
        380.0       372.4       365.2       358.1       351.1       344.2       337.4       330.4       323.2       315.8    
        308.0       299.6       290.6       280.8       269.7       265.1       261.4       258.3       254.5       247.7    
        243.8       242.6       238.7       233.7       229.7       228.8       227.6       221.2       213.9       205.9    
 # Output Control file, modified by QSWATMOD2 plugin version 2.0. - 02/04/22 14:04:21 -
 # Output Control file created on 2/4/2022 by ModelMuse version 4.3.0.0.

 OUTPUT CONTROL IS SPECIFIED ONLY AT TIME STEPS FOR WHICH OUTPUT IS DESIRED
 HEADS WILL BE SAVED WITH FORMAT: (10(1X1PE13.5))     
 SAVED HEADS WILL BE LABELED
 DRAWDOWN WILL BE SAVED WITH FORMAT: (10(1X1PE13.5))     
 SAVED DRAWDOWN WILL BE LABELED
 COMPACT CELL-BY-CELL BUDGET FILES WILL BE WRITTEN
 AUXILIARY DATA WILL BE SAVED IN CELL-BY-CELL BUDGET FILES
 HEAD PRINT FORMAT CODE IS   0    DRAWDOWN PRINT FORMAT CODE IS   0
 HEADS WILL BE SAVED ON UNIT 5037    DRAWDOWNS WILL BE SAVED ON UNIT   38

 ZONE OPTION, INPUT READ FROM UNIT 5015
 # Zone (ZONE) File created on 2/4/2022 by ModelMuse version 4.3.0.0.
     4 ZONE ARRAYS



             ZONE ARRAY: hk01_Z1   
 READING ON UNIT 5015 WITH FORMAT: (FREE)              

          1     2     3     4     5     6     7     8     9    10    11    12    13    14    15    16    17    18    19    20
         21    22    23    24    25    26    27    28    29    30    31    32    33    34    35    36    37    38    39    40
 ............................................................................................................................
   1      1     1     1     1     1     1     1     1     1     1     1     1     1     1     1     1     1     1     1     1
          1     1     1     1     1     1     1     0     0     0     0     0     0     0     0     0     0     0     0     0
   2      1     1     1     1     1     1     1     1     1     1     1     1     1     1     1     1     1     1     1     1
          1     1     1     1     1     1     1     1     1     1     0     0     0     0     0     0     0     0     0     0
   3      1     1     1     1     1     1     1     1     1     1     1     1     1     1     1     1     1     1     1     1
          1     1     1     1     1     1     1     1     1     0     0     0     0     0     0     0     0     0     0     0
   4      1     1     1     1     1     1     1     1     1     1     1     1     1     1     1     1     1     1     1     1
          1     1     1     1     1     1     1     1     0     0     0     0     0     0     0     0     0     0     0     0
   5      1     1     1     1     1     1     1     1     1     1     1     1     1     1     1     1     1     1     1     1
          1     1     1     1     1     1     1     0     0     0     0     0     0     0     0     0     0     0     0     0
   6      1     1     1     1     1     1     1     1     1     1     1     1     1     1     1     1     1     1     1     1
          1     1     1     1     1     1     0     0     0     0     0     0     0     0     0     0     0     0     0     0
   7      1     1     1     1     1     1     1     1     1     1     1     1     1     1     1     1     1     1     1     1
          1     1     1     1     1     0     0     0     0     0     0     0     0     0     0     0     0     0     0     0
   8      1     1     1     1     1     1     1     1     1     1     1     1     1     1     1     1     1     1     1     1
          1     1     1     1     0     0     0     0     0     0     0     0     0     0     0     0     0     0     0     0
   9      0     1     1     1     1     1     1     1     1     1     1     1     1     1     1     1     1     1     1     1
          1     1     1     0     0     0     0     0     0     0     0     0     0     0     0     0     0     0     0     0
  10      0     0     0     1     1     1     1     1     1     1     1     1     1     1     1     1     1     1     1     1
          1     1     0     0     0     0     0     0     0     0     0     0     0     0     0     0     0     0     0     0
  11      0     0     0     0     1     1     1     1     1     1     1     1     1     1     1     1     1     1     1     1
          1     0     0     0     0     0     0     0     0     0     0     0     0     0     0     0     0     0     0     0
  12      0     0     0     0     0     0     1     1     1     1     1     1     1     1     1     1     1     1     1     1
          0     0     0     0     0     0     0     0     0     0     0     0     0     0     0     0     0     0     0     0
  13      0     0     0     0     0     0     0     1     1     1     1     1     1     1     1     1     1     1     1     0
          0     0     0     0     0     0     0     0     0     0     0     0     0     0     0     0     0     0     0     0
  14      0     0     0     0     0     0     0     0     0     1     1     1     1     1     1     1     1     1     0     0
          0     0     0     0     0     0     0     0     0     0     0     0     0     0     0     0     0     0     0     0
  15      0     0     0     0     0     0     0     0     0     0     1     1     1     1     1     1     1     0     0     0
          0     0     0     0     0     0     0     0     0     0     0     0     0     0     0     0     0     0     0     0
  16      0     0     0     0     0     0     0     0     0     0     0     1     1     1     1     1     1     0     0     0
          0     0     0     0     0     0     0     0     0     0     0     0     0     0     0     0     0     0     0     0
  17      0     0     0     0     0     0     0     0     0     0     0     0     0     1     1     1     0     0     0     0
          0     0     0     0     0     0     0     0     0     0     0     0     0     0     0     0     0     0     0     0
  18      0     0     0     0     0     0     0     0     0     0     0     0     0     0     0     0     0     0     0     0
          0     0     0     0     0     0     0     0     0     0     0     0     0     0     0     0     0     0     0     0
  19      0     0     0     0     0     0     0     0     0     0     0     0     0     0     0     0     0     0     0     0
          0     0     0     0     0     0     0     0     0     0     0     0     0     0     0     0     0     0     0     0
  20      0     0     0     0     0     0     0     0     0     0     0     0     0     0     0     0     0     0     0     0
          0     0     0     0     0     0     0     0     0     0     0     0     0     0     0     0     0     0     0     0
  21      0     0     0     0     0     0     0     0     0     0     0     0     0     0     0     0     0     0     0     0
          0     0     0     0     0     0     0     0     0     0     0     0     0     0     0     0     0     0     0     0
  22      0     0     0     0     0     0     0     0     0     0     0     0     0     0     0     0     0     0     0     0
          0     0     0     0     0     0     0     0     0     0     0     0     0     0     0     0     0     0     0     0
  23      0     0     0     0     0     0     0     0     0     0     0     0     0     0     0     0     0     0     0     0
          0     0     0     0     0     0     0     0     0     0     0     0     0     0     0     0     0     0     0     0



             ZONE ARRAY: hk02_Z1   
 READING ON UNIT 5015 WITH FORMAT: (FREE)              

          1     2     3     4     5     6     7     8     9    10    11    12    13    14    15    16    17    18    19    20
         21    22    23    24    25    26    27    28    29    30    31    32    33    34    35    36    37    38    39    40
 ............................................................................................................................
   1      0     0     0     0     0     0     0     0     0     0     0     0     0     0     0     0     0     0     0     0
          0     0     0     0     0     0     0     0     0     0     0     0     0     0     0     0     0     0     0     0
   2      0     0     0     0     0     0     0     0     0     0     0     0     0     0     0     0     0     0     0     0
          0     0     0     0     0     0     0     0     0     1     1     1     0     0     0     0     0     0     0     0
   3      0     0     0     0     0     0     0     0     0     0     0     0     0     0     0     0     0     0     0     0
          0     0     0     0     0     0     0     0     1     1     1     1     1     0     0     0     0     0     0     0
   4      0     0     0     0     0     0     0     0     0     0     0     0     0     0     0     0     0     0     0     0
          0     0     0     0     0     0     0     1     1     1     1     1     1     1     0     0     0     0     0     0
   5      0     0     0     0     0     0     0     0     0     0     0     0     0     0     0     0     0     0     0     0
          0     0     0     0     0     0     1     1     1     1     1     1     1     1     1     1     0     0     0     0
   6      0     0     0     0     0     0     0     0     0     0     0     0     0     0     0     0     0     0     0     0
          0     0     0     0     0     1     1     1     1     1     1     1     1     1     1     1     1     0     0     0
   7      0     0     0     0     0     0     0     0     0     0     0     0     0     0     0     0     0     0     0     0
          0     0     0     0     1     1     1     1     1     1     1     1     1     1     1     1     1     1     0     0
   8      0     0     0     0     0     0     0     0     0     0     0     0     0     0     0     0     0     0     0     0
          0     0     0     1     1     1     1     1     1     1     1     1     1     1     1     1     1     1     1     0
   9      0     0     0     0     0     0     0     0     0     0     0     0     0     0     0     0     0     0     0     0
          0     0     1     1     1     1     1     1     1     1     1     1     1     1     1     1     1     1     1     1
  10      0     0     0     0     0     0     0     0     0     0     0     0     0     0     0     0     0     0     0     0
          0     1     1     1     1     1     1     1     1     1     1     1     1     1     1     1     1     1     1     1
  11      0     0     0     0     0     0     0     0     0     0     0     0     0     0     0     0     0     0     0     0
          1     1     1     1     1     1     1     1     1     1     1     1     1     1     1     1     1     1     1     1
  12      0     0     0     0     0     0     0     0     0     0     0     0     0     0     0     0     0     0     0     1
          1     1     1     1     1     1     1     1     1     1     1     1     1     1     1     1     1     1     1     1
  13      0     0     0     0     0     0     0     0     0     0     0     0     0     0     0     0     0     0     1     1
          1     1     1     1     1     1     1     1     1     1     1     1     1     1     1     1     1     1     1     1
  14      0     0     0     0     0     0     0     0     0     0     0     0     0     0     0     0     0     1     1     1
          1     1     1     1     1     1     1     1     1     1     1     1     1     1     1     1     1     1     1     1
  15      0     0     0     0     0     0     0     0     0     0     0     0     0     0     0     0     1     1     1     1
          1     1     1     1     1     1     1     1     1     1     1     1     1     1     1     1     1     1     1     1
  16      0     0     0     0     0     0     0     0     0     0     0     0     0     0     0     1     1     1     1     1
          1     1     1     1     1     1     1     1     1     1     1     1     1     1     1     1     1     1     1     1
  17      0     0     0     0     0     0     0     0     0     0     0     0     0     0     1     1     1     1     1     1
          1     1     1     1     1     1     1     1     1     1     1     1     1     1     1     1     1     1     1     1
  18      0     0     0     0     0     0     0     0     0     0     0     0     0     1     1     1     1     1     1     1
          1     1     1     1     1     1     1     1     1     1     1     1     1     1     1     1     1     1     1     1
  19      0     0     0     0     0     0     0     0     0     0     0     0     0     0     1     1     1     1     1     1
          1     1     1     1     1     1     1     1     1     1     1     1     1     1     1     1     1     1     1     1
  20      0     0     0     0     0     0     0     0     0     0     0     0     0     0     0     0     1     1     1     1
          1     1     1     1     1     1     1     1     1     1     1     1     1     1     1     1     1     1     1     1
  21      0     0     0     0     0     0     0     0     0     0     0     0     0     0     0     0     0     1     1     1
          1     1     1     1     1     1     1     1     1     1     1     1     1     1     1     1     1     1     1     1
  22      0     0     0     0     0     0     0     0     0     0     0     0     0     0     0     0     0     0     0     1
          1     1     1     1     1     1     1     1     1     1     1     1     1     1     1     1     1     1     1     0
  23      0     0     0     0     0     0     0     0     0     0     0     0     0     0     0     0     0     0     0     0
          0     1     1     1     1     1     1     1     1     1     1     1     1     1     1     1     1     1     1     0



             ZONE ARRAY: sy01_Z1   
 READING ON UNIT 5015 WITH FORMAT: (FREE)              

          1     2     3     4     5     6     7     8     9    10    11    12    13    14    15    16    17    18    19    20
         21    22    23    24    25    26    27    28    29    30    31    32    33    34    35    36    37    38    39    40
 ............................................................................................................................
   1      1     1     1     1     1     1     1     1     1     1     1     1     1     1     1     1     1     1     1     1
          1     1     1     1     1     1     1     0     0     0     0     0     0     0     0     0     0     0     0     0
   2      1     1     1     1     1     1     1     1     1     1     1     1     1     1     1     1     1     1     1     1
          1     1     1     1     1     1     1     1     1     1     0     0     0     0     0     0     0     0     0     0
   3      1     1     1     1     1     1     1     1     1     1     1     1     1     1     1     1     1     1     1     1
          1     1     1     1     1     1     1     1     1     0     0     0     0     0     0     0     0     0     0     0
   4      1     1     1     1     1     1     1     1     1     1     1     1     1     1     1     1     1     1     1     1
          1     1     1     1     1     1     1     1     0     0     0     0     0     0     0     0     0     0     0     0
   5      1     1     1     1     1     1     1     1     1     1     1     1     1     1     1     1     1     1     1     1
          1     1     1     1     1     1     1     0     0     0     0     0     0     0     0     0     0     0     0     0
   6      1     1     1     1     1     1     1     1     1     1     1     1     1     1     1     1     1     1     1     1
          1     1     1     1     1     1     0     0     0     0     0     0     0     0     0     0     0     0     0     0
   7      1     1     1     1     1     1     1     1     1     1     1     1     1     1     1     1     1     1     1     1
          1     1     1     1     1     0     0     0     0     0     0     0     0     0     0     0     0     0     0     0
   8      1     1     1     1     1     1     1     1     1     1     1     1     1     1     1     1     1     1     1     1
          1     1     1     1     0     0     0     0     0     0     0     0     0     0     0     0     0     0     0     0
   9      0     1     1     1     1     1     1     1     1     1     1     1     1     1     1     1     1     1     1     1
          1     1     1     0     0     0     0     0     0     0     0     0     0     0     0     0     0     0     0     0
  10      0     0     0     1     1     1     1     1     1     1     1     1     1     1     1     1     1     1     1     1
          1     1     0     0     0     0     0     0     0     0     0     0     0     0     0     0     0     0     0     0
  11      0     0     0     0     1     1     1     1     1     1     1     1     1     1     1     1     1     1     1     1
          1     0     0     0     0     0     0     0     0     0     0     0     0     0     0     0     0     0     0     0
  12      0     0     0     0     0     0     1     1     1     1     1     1     1     1     1     1     1     1     1     1
          0     0     0     0     0     0     0     0     0     0     0     0     0     0     0     0     0     0     0     0
  13      0     0     0     0     0     0     0     1     1     1     1     1     1     1     1     1     1     1     1     0
          0     0     0     0     0     0     0     0     0     0     0     0     0     0     0     0     0     0     0     0
  14      0     0     0     0     0     0     0     0     0     1     1     1     1     1     1     1     1     1     0     0
          0     0     0     0     0     0     0     0     0     0     0     0     0     0     0     0     0     0     0     0
  15      0     0     0     0     0     0     0     0     0     0     1     1     1     1     1     1     1     0     0     0
          0     0     0     0     0     0     0     0     0     0     0     0     0     0     0     0     0     0     0     0
  16      0     0     0     0     0     0     0     0     0     0     0     1     1     1     1     1     1     0     0     0
          0     0     0     0     0     0     0     0     0     0     0     0     0     0     0     0     0     0     0     0
  17      0     0     0     0     0     0     0     0     0     0     0     0     0     1     1     1     0     0     0     0
          0     0     0     0     0     0     0     0     0     0     0     0     0     0     0     0     0     0     0     0
  18      0     0     0     0     0     0     0     0     0     0     0     0     0     0     0     0     0     0     0     0
          0     0     0     0     0     0     0     0     0     0     0     0     0     0     0     0     0     0     0     0
  19      0     0     0     0     0     0     0     0     0     0     0     0     0     0     0     0     0     0     0     0
          0     0     0     0     0     0     0     0     0     0     0     0     0     0     0     0     0     0     0     0
  20      0     0     0     0     0     0     0     0     0     0     0     0     0     0     0     0     0     0     0     0
          0     0     0     0     0     0     0     0     0     0     0     0     0     0     0     0     0     0     0     0
  21      0     0     0     0     0     0     0     0     0     0     0     0     0     0     0     0     0     0     0     0
          0     0     0     0     0     0     0     0     0     0     0     0     0     0     0     0     0     0     0     0
  22      0     0     0     0     0     0     0     0     0     0     0     0     0     0     0     0     0     0     0     0
          0     0     0     0     0     0     0     0     0     0     0     0     0     0     0     0     0     0     0     0
  23      0     0     0     0     0     0     0     0     0     0     0     0     0     0     0     0     0     0     0     0
          0     0     0     0     0     0     0     0     0     0     0     0     0     0     0     0     0     0     0     0



             ZONE ARRAY: sy02_Z1   
 READING ON UNIT 5015 WITH FORMAT: (FREE)              

          1     2     3     4     5     6     7     8     9    10    11    12    13    14    15    16    17    18    19    20
         21    22    23    24    25    26    27    28    29    30    31    32    33    34    35    36    37    38    39    40
 ............................................................................................................................
   1      0     0     0     0     0     0     0     0     0     0     0     0     0     0     0     0     0     0     0     0
          0     0     0     0     0     0     0     0     0     0     0     0     0     0     0     0     0     0     0     0
   2      0     0     0     0     0     0     0     0     0     0     0     0     0     0     0     0     0     0     0     0
          0     0     0     0     0     0     0     0     0     1     1     1     0     0     0     0     0     0     0     0
   3      0     0     0     0     0     0     0     0     0     0     0     0     0     0     0     0     0     0     0     0
          0     0     0     0     0     0     0     0     1     1     1     1     1     0     0     0     0     0     0     0
   4      0     0     0     0     0     0     0     0     0     0     0     0     0     0     0     0     0     0     0     0
          0     0     0     0     0     0     0     1     1     1     1     1     1     1     0     0     0     0     0     0
   5      0     0     0     0     0     0     0     0     0     0     0     0     0     0     0     0     0     0     0     0
          0     0     0     0     0     0     1     1     1     1     1     1     1     1     1     1     0     0     0     0
   6      0     0     0     0     0     0     0     0     0     0     0     0     0     0     0     0     0     0     0     0
          0     0     0     0     0     1     1     1     1     1     1     1     1     1     1     1     1     0     0     0
   7      0     0     0     0     0     0     0     0     0     0     0     0     0     0     0     0     0     0     0     0
          0     0     0     0     1     1     1     1     1     1     1     1     1     1     1     1     1     1     0     0
   8      0     0     0     0     0     0     0     0     0     0     0     0     0     0     0     0     0     0     0     0
          0     0     0     1     1     1     1     1     1     1     1     1     1     1     1     1     1     1     1     0
   9      0     0     0     0     0     0     0     0     0     0     0     0     0     0     0     0     0     0     0     0
          0     0     1     1     1     1     1     1     1     1     1     1     1     1     1     1     1     1     1     1
  10      0     0     0     0     0     0     0     0     0     0     0     0     0     0     0     0     0     0     0     0
          0     1     1     1     1     1     1     1     1     1     1     1     1     1     1     1     1     1     1     1
  11      0     0     0     0     0     0     0     0     0     0     0     0     0     0     0     0     0     0     0     0
          1     1     1     1     1     1     1     1     1     1     1     1     1     1     1     1     1     1     1     1
  12      0     0     0     0     0     0     0     0     0     0     0     0     0     0     0     0     0     0     0     1
          1     1     1     1     1     1     1     1     1     1     1     1     1     1     1     1     1     1     1     1
  13      0     0     0     0     0     0     0     0     0     0     0     0     0     0     0     0     0     0     1     1
          1     1     1     1     1     1     1     1     1     1     1     1     1     1     1     1     1     1     1     1
  14      0     0     0     0     0     0     0     0     0     0     0     0     0     0     0     0     0     1     1     1
          1     1     1     1     1     1     1     1     1     1     1     1     1     1     1     1     1     1     1     1
  15      0     0     0     0     0     0     0     0     0     0     0     0     0     0     0     0     1     1     1     1
          1     1     1     1     1     1     1     1     1     1     1     1     1     1     1     1     1     1     1     1
  16      0     0     0     0     0     0     0     0     0     0     0     0     0     0     0     1     1     1     1     1
          1     1     1     1     1     1     1     1     1     1     1     1     1     1     1     1     1     1     1     1
  17      0     0     0     0     0     0     0     0     0     0     0     0     0     0     1     1     1     1     1     1
          1     1     1     1     1     1     1     1     1     1     1     1     1     1     1     1     1     1     1     1
  18      0     0     0     0     0     0     0     0     0     0     0     0     0     1     1     1     1     1     1     1
          1     1     1     1     1     1     1     1     1     1     1     1     1     1     1     1     1     1     1     1
  19      0     0     0     0     0     0     0     0     0     0     0     0     0     0     1     1     1     1     1     1
          1     1     1     1     1     1     1     1     1     1     1     1     1     1     1     1     1     1     1     1
  20      0     0     0     0     0     0     0     0     0     0     0     0     0     0     0     0     1     1     1     1
          1     1     1     1     1     1     1     1     1     1     1     1     1     1     1     1     1     1     1     1
  21      0     0     0     0     0     0     0     0     0     0     0     0     0     0     0     0     0     1     1     1
          1     1     1     1     1     1     1     1     1     1     1     1     1     1     1     1     1     1     1     1
  22      0     0     0     0     0     0     0     0     0     0     0     0     0     0     0     0     0     0     0     1
          1     1     1     1     1     1     1     1     1     1     1     1     1     1     1     1     1     1     1     0
  23      0     0     0     0     0     0     0     0     0     0     0     0     0     0     0     0     0     0     0     0
          0     1     1     1     1     1     1     1     1     1     1     1     1     1     1     1     1     1     1     0

 PARAMETER VALUE INPUT FILE,  INPUT READ FROM UNIT 5052
 #pval template file from pyemu

 NUMBER OF PARAMETER VALUES TO BE READ FROM PARAMETER VALUE FILE:    4

 INFORMATION ON PARAMETERS LISTED IN PARAMETER FILE
               VALUE IN
    NAME     PARAMETER FILE
 ----------  --------------
 hk01          1.0000    
 hk02          1.0000    
 sy01         0.10000E-01
 sy02         0.10000E-01
 -----------------------------------------------------------------------------
 FOR THE PARAMETERS LISTED IN THE TABLE ABOVE, PARAMETER VALUES IN INDIVIDUAL
 PACKAGE INPUT FILES ARE REPLACED BY THE VALUES FROM THE PARAMETER INPUT FILE.
 # NWT: Newton Solver file created on 2/4/2022 by ModelMuse version 4.3.0.0.

 NWT1 -- Newton Solver, VERSION 1.0.6, 12/05/2012
         INPUT READ FROM UNIT***

 COMPLEX OPTION:
 DEFAULT SOLVER INPUT VALUES REFLECT STRONGLY NONLINEAR MODEL
 ***XMD linear solver will be used***
 
   CONVERGENCE CRITERION OF   0.100000E+00 FOR HEAD SOLUTION
   AND A TOLERANCE OF   0.100000E+03 FOR FLOW SOLUTION AND 
   A MAXIMUM OF  5000 OUTER ITERATIONS. 


   D-B-D REDUCTION FACTOR OF    0.850000E+00 AND 
   A D-B-D INCREASE FACTOR OF    0.100000E-04 AND 
   A D-B-D RELAXATION OF    0.000000E+00 AND 
   A MOMENTUM FACTOR OF    0.100000E+00 .


   BACKTRACKING IS ACTIVE 
   THE MAXIMUM NUMBER OF BACKTRACKS IS    50 AND 
   THE BACKTRACKING TOLERANCE IS    0.110000E+01 AND
   THE BACKTRACKING REDUCTION FACTOR IS    0.700000E+00

 XMD -- LINEAR SOLUTION BY XMD PACKAGE VERSION 1.30
     BY MOTOMU IBARAKI, OHIO STATE UNIVERSITY, COLOMBUS, OH
                 INPUT READ FROM UNIT***
 ACCELERATION METHOD                    (IACL) =         2
 NODE ORDERING FLAG                   (NORDER) =         1
 LEVEL OF FILL                         (LEVEL) =         5
 MAXIMUM NUMBER OF ORTHOGONALIZATIONS  (NORTH) =         7
 INDEX FOR USING REDUCED SYSTEM      (IREDSYS) =         1
 RESID. REDUCTION CONVERGE CRITERION  (RRCTOL) =  0.000000E+00
 INDEX FOR USING DROP TOLERANCE     (IDROPTOL) =         1
 DROP TOLERANCE VALUE                  (EPSRN) =  0.100000E-04
 CONVERGENCE CRITERIA OF           (HCLOSEXMD) =  0.100000E-04
 MAX. NUMBER OF LINEAR ITERATIONS  (MXITERXMD) =        50


 UPW1 -- UPSTREAM WEIGHTING FLOW PACKAGE, VERSION 1.0.6, 12/05/2012
         INPUT READ FROM UNIT***

 # UPW: Upstream Weighting package file created on 2/4/2022 by ModelMuse version 4.3.0.0.
 CELL-BY-CELL FLOWS WILL BE SAVED ON UNIT    9
     4 Named Parameters     

   LAYER FLAGS:
 LAYER       LAYTYP          LAYAVG    CHANI           LAYVKA           LAYWET
 ---------------------------------------------------------------------------
    1             1             0    -1.000E+00             0             0

   INTERPRETATION OF LAYER FLAGS:
                        INTERBLOCK     HORIZONTAL    DATA IN
         LAYER TYPE   TRANSMISSIVITY   ANISOTROPY   ARRAY VKA   WETTABILITY
 LAYER   (LAYTYP)        (LAYAVG)      (CHANI)     (LAYVKA)       (LAYWET)
 ---------------------------------------------------------------------------
    1   CONVERTIBLE      HARMONIC      VARIABLE    VERTICAL K  NON-WETTABLE

 PARAMETERS DEFINED IN THE NWT PACKAGE

 PARAMETER NAME:hk01         TYPE:HK     CLUSTERS:   1
 Parameter value from package file is:    5.0000    
 This value has been changed to:          1.0000    , as read from
 the Parameter Value file
                LAYER:   1    MULTIPLIER ARRAY: NONE    ZONE ARRAY: hk01_Z1
                ZONE VALUES:    1

 PARAMETER NAME:hk02         TYPE:HK     CLUSTERS:   1
 Parameter value from package file is:    10.000    
 This value has been changed to:          1.0000    , as read from
 the Parameter Value file
                LAYER:   1    MULTIPLIER ARRAY: NONE    ZONE ARRAY: hk02_Z1
                ZONE VALUES:    1

 PARAMETER NAME:sy01         TYPE:SY     CLUSTERS:   1
 Parameter value from package file is:   0.10000    
 This value has been changed to:         1.00000E-02, as read from
 the Parameter Value file
                LAYER:   1    MULTIPLIER ARRAY: NONE    ZONE ARRAY: sy01_Z1
                ZONE VALUES:    1

 PARAMETER NAME:sy02         TYPE:SY     CLUSTERS:   1
 Parameter value from package file is:   0.10000    
 This value has been changed to:         1.00000E-02, as read from
 the Parameter Value file
                LAYER:   1    MULTIPLIER ARRAY: NONE    ZONE ARRAY: sy02_Z1
                ZONE VALUES:    1

    HYD. COND. ALONG ROWS FOR LAYER   1 WILL BE DEFINED BY PARAMETERS
 (PRINT FLAG=  12)

    HYD. COND. ALONG ROWS is defined by the following parameters:
 hk01      
 hk02      


              HYD. COND. ALONG ROWS FOR LAYER   1

            1           2           3           4           5           6           7           8           9          10
           11          12          13          14          15          16          17          18          19          20
           21          22          23          24          25          26          27          28          29          30
           31          32          33          34          35          36          37          38          39          40
 ........................................................................................................................
   1    1.000       1.000       1.000       1.000       1.000       1.000       1.000       1.000       1.000       1.000    
        1.000       1.000       1.000       1.000       1.000       1.000       1.000       1.000       1.000       1.000    
        1.000       1.000       1.000       1.000       1.000       1.000       1.000       0.000       0.000       0.000    
        0.000       0.000       0.000       0.000       0.000       0.000       0.000       0.000       0.000       0.000    
   2    1.000       1.000       1.000       1.000       1.000       1.000       1.000       1.000       1.000       1.000    
        1.000       1.000       1.000       1.000       1.000       1.000       1.000       1.000       1.000       1.000    
        1.000       1.000       1.000       1.000       1.000       1.000       1.000       1.000       1.000       2.000    
        1.000       1.000       0.000       0.000       0.000       0.000       0.000       0.000       0.000       0.000    
   3    1.000       1.000       1.000       1.000       1.000       1.000       1.000       1.000       1.000       1.000    
        1.000       1.000       1.000       1.000       1.000       1.000       1.000       1.000       1.000       1.000    
        1.000       1.000       1.000       1.000       1.000       1.000       1.000       1.000       2.000       1.000    
        1.000       1.000       1.000       0.000       0.000       0.000       0.000       0.000       0.000       0.000    
   4    1.000       1.000       1.000       1.000       1.000       1.000       1.000       1.000       1.000       1.000    
        1.000       1.000       1.000       1.000       1.000       1.000       1.000       1.000       1.000       1.000    
        1.000       1.000       1.000       1.000       1.000       1.000       1.000       2.000       1.000       1.000    
        1.000       1.000       1.000       1.000       0.000       0.000       0.000       0.000       0.000       0.000    
   5    1.000       1.000       1.000       1.000       1.000       1.000       1.000       1.000       1.000       1.000    
        1.000       1.000       1.000       1.000       1.000       1.000       1.000       1.000       1.000       1.000    
        1.000       1.000       1.000       1.000       1.000       1.000       2.000       1.000       1.000       1.000    
        1.000       1.000       1.000       1.000       1.000       1.000       0.000       0.000       0.000       0.000    
   6    1.000       1.000       1.000       1.000       1.000       1.000       1.000       1.000       1.000       1.000    
        1.000       1.000       1.000       1.000       1.000       1.000       1.000       1.000       1.000       1.000    
        1.000       1.000       1.000       1.000       1.000       2.000       1.000       1.000       1.000       1.000    
        1.000       1.000       1.000       1.000       1.000       1.000       1.000       0.000       0.000       0.000    
   7    1.000       1.000       1.000       1.000       1.000       1.000       1.000       1.000       1.000       1.000    
        1.000       1.000       1.000       1.000       1.000       1.000       1.000       1.000       1.000       1.000    
        1.000       1.000       1.000       1.000       2.000       1.000       1.000       1.000       1.000       1.000    
        1.000       1.000       1.000       1.000       1.000       1.000       1.000       1.000       0.000       0.000    
   8    1.000       1.000       1.000       1.000       1.000       1.000       1.000       1.000       1.000       1.000    
        1.000       1.000       1.000       1.000       1.000       1.000       1.000       1.000       1.000       1.000    
        1.000       1.000       1.000       2.000       1.000       1.000       1.000       1.000       1.000       1.000    
        1.000       1.000       1.000       1.000       1.000       1.000       1.000       1.000       1.000       0.000    
   9    0.000       1.000       1.000       1.000       1.000       1.000       1.000       1.000       1.000       1.000    
        1.000       1.000       1.000       1.000       1.000       1.000       1.000       1.000       1.000       1.000    
        1.000       1.000       2.000       1.000       1.000       1.000       1.000       1.000       1.000       1.000    
        1.000       1.000       1.000       1.000       1.000       1.000       1.000       1.000       1.000       1.000    
  10    0.000       0.000       0.000       1.000       1.000       1.000       1.000       1.000       1.000       1.000    
        1.000       1.000       1.000       1.000       1.000       1.000       1.000       1.000       1.000       1.000    
        1.000       2.000       1.000       1.000       1.000       1.000       1.000       1.000       1.000       1.000    
        1.000       1.000       1.000       1.000       1.000       1.000       1.000       1.000       1.000       1.000    
  11    0.000       0.000       0.000       0.000       1.000       1.000       1.000       1.000       1.000       1.000    
        1.000       1.000       1.000       1.000       1.000       1.000       1.000       1.000       1.000       1.000    
        2.000       1.000       1.000       1.000       1.000       1.000       1.000       1.000       1.000       1.000    
        1.000       1.000       1.000       1.000       1.000       1.000       1.000       1.000       1.000       1.000    
  12    0.000       0.000       0.000       0.000       0.000       0.000       1.000       1.000       1.000       1.000    
        1.000       1.000       1.000       1.000       1.000       1.000       1.000       1.000       1.000       2.000    
        1.000       1.000       1.000       1.000       1.000       1.000       1.000       1.000       1.000       1.000    
        1.000       1.000       1.000       1.000       1.000       1.000       1.000       1.000       1.000       1.000    
  13    0.000       0.000       0.000       0.000       0.000       0.000       0.000       1.000       1.000       1.000    
        1.000       1.000       1.000       1.000       1.000       1.000       1.000       1.000       2.000       1.000    
        1.000       1.000       1.000       1.000       1.000       1.000       1.000       1.000       1.000       1.000    
        1.000       1.000       1.000       1.000       1.000       1.000       1.000       1.000       1.000       1.000    
  14    0.000       0.000       0.000       0.000       0.000       0.000       0.000       0.000       0.000       1.000    
        1.000       1.000       1.000       1.000       1.000       1.000       1.000       2.000       1.000       1.000    
        1.000       1.000       1.000       1.000       1.000       1.000       1.000       1.000       1.000       1.000    
        1.000       1.000       1.000       1.000       1.000       1.000       1.000       1.000       1.000       1.000    
  15    0.000       0.000       0.000       0.000       0.000       0.000       0.000       0.000       0.000       0.000    
        1.000       1.000       1.000       1.000       1.000       1.000       2.000       1.000       1.000       1.000    
        1.000       1.000       1.000       1.000       1.000       1.000       1.000       1.000       1.000       1.000    
        1.000       1.000       1.000       1.000       1.000       1.000       1.000       1.000       1.000       1.000    
  16    0.000       0.000       0.000       0.000       0.000       0.000       0.000       0.000       0.000       0.000    
        0.000       1.000       1.000       1.000       1.000       2.000       2.000       1.000       1.000       1.000    
        1.000       1.000       1.000       1.000       1.000       1.000       1.000       1.000       1.000       1.000    
        1.000       1.000       1.000       1.000       1.000       1.000       1.000       1.000       1.000       1.000    
  17    0.000       0.000       0.000       0.000       0.000       0.000       0.000       0.000       0.000       0.000    
        0.000       0.000       0.000       1.000       2.000       2.000       1.000       1.000       1.000       1.000    
        1.000       1.000       1.000       1.000       1.000       1.000       1.000       1.000       1.000       1.000    
        1.000       1.000       1.000       1.000       1.000       1.000       1.000       1.000       1.000       1.000    
  18    0.000       0.000       0.000       0.000       0.000       0.000       0.000       0.000       0.000       0.000    
        0.000       0.000       0.000       1.000       1.000       1.000       1.000       1.000       1.000       1.000    
        1.000       1.000       1.000       1.000       1.000       1.000       1.000       1.000       1.000       1.000    
        1.000       1.000       1.000       1.000       1.000       1.000       1.000       1.000       1.000       1.000    
  19    0.000       0.000       0.000       0.000       0.000       0.000       0.000       0.000       0.000       0.000    
        0.000       0.000       0.000       0.000       1.000       1.000       1.000       1.000       1.000       1.000    
        1.000       1.000       1.000       1.000       1.000       1.000       1.000       1.000       1.000       1.000    
        1.000       1.000       1.000       1.000       1.000       1.000       1.000       1.000       1.000       1.000    
  20    0.000       0.000       0.000       0.000       0.000       0.000       0.000       0.000       0.000       0.000    
        0.000       0.000       0.000       0.000       0.000       0.000       1.000       1.000       1.000       1.000    
        1.000       1.000       1.000       1.000       1.000       1.000       1.000       1.000       1.000       1.000    
        1.000       1.000       1.000       1.000       1.000       1.000       1.000       1.000       1.000       1.000    
  21    0.000       0.000       0.000       0.000       0.000       0.000       0.000       0.000       0.000       0.000    
        0.000       0.000       0.000       0.000       0.000       0.000       0.000       1.000       1.000       1.000    
        1.000       1.000       1.000       1.000       1.000       1.000       1.000       1.000       1.000       1.000    
        1.000       1.000       1.000       1.000       1.000       1.000       1.000       1.000       1.000       1.000    
  22    0.000       0.000       0.000       0.000       0.000       0.000       0.000       0.000       0.000       0.000    
        0.000       0.000       0.000       0.000       0.000       0.000       0.000       0.000       0.000       1.000    
        1.000       1.000       1.000       1.000       1.000       1.000       1.000       1.000       1.000       1.000    
        1.000       1.000       1.000       1.000       1.000       1.000       1.000       1.000       1.000       0.000    
  23    0.000       0.000       0.000       0.000       0.000       0.000       0.000       0.000       0.000       0.000    
        0.000       0.000       0.000       0.000       0.000       0.000       0.000       0.000       0.000       0.000    
        0.000       1.000       1.000       1.000       1.000       1.000       1.000       1.000       1.000       1.000    
        1.000       1.000       1.000       1.000       1.000       1.000       1.000       1.000       1.000       0.000    

   HORIZ. ANI. (COL./ROW) =   1.00000     FOR LAYER   1



                VERTICAL HYD. COND. FOR LAYER   1
 READING ON UNIT 5134 WITH FORMAT: (FREE)              

            1           2           3           4           5           6           7           8           9          10
           11          12          13          14          15          16          17          18          19          20
           21          22          23          24          25          26          27          28          29          30
           31          32          33          34          35          36          37          38          39          40
 ........................................................................................................................
   1   0.5000      0.5000      0.5000      0.5000      0.5000      0.5000      0.5000      0.5000      0.5000      0.5000    
       0.5000      0.5000      0.5000      0.5000      0.5000      0.5000      0.5000      0.5000      0.5000      0.5000    
       0.5000      0.5000      0.5000      0.5000      0.5000      0.5000      0.5000       0.000       0.000       0.000    
        0.000       0.000       0.000       0.000       0.000       0.000       0.000       0.000       0.000       0.000    
   2   0.5000      0.5000      0.5000      0.5000      0.5000      0.5000      0.5000      0.5000      0.5000      0.5000    
       0.5000      0.5000      0.5000      0.5000      0.5000      0.5000      0.5000      0.5000      0.5000      0.5000    
       0.5000      0.5000      0.5000      0.5000      0.5000      0.5000      0.5000      0.5000      0.5000       1.500    
        1.000       1.000       0.000       0.000       0.000       0.000       0.000       0.000       0.000       0.000    
   3   0.5000      0.5000      0.5000      0.5000      0.5000      0.5000      0.5000      0.5000      0.5000      0.5000    
       0.5000      0.5000      0.5000      0.5000      0.5000      0.5000      0.5000      0.5000      0.5000      0.5000    
       0.5000      0.5000      0.5000      0.5000      0.5000      0.5000      0.5000      0.5000       1.500       1.000    
        1.000       1.000       1.000       0.000       0.000       0.000       0.000       0.000       0.000       0.000    
   4   0.5000      0.5000      0.5000      0.5000      0.5000      0.5000      0.5000      0.5000      0.5000      0.5000    
       0.5000      0.5000      0.5000      0.5000      0.5000      0.5000      0.5000      0.5000      0.5000      0.5000    
       0.5000      0.5000      0.5000      0.5000      0.5000      0.5000      0.5000       1.500       1.000       1.000    
        1.000       1.000       1.000       1.000       0.000       0.000       0.000       0.000       0.000       0.000    
   5   0.5000      0.5000      0.5000      0.5000      0.5000      0.5000      0.5000      0.5000      0.5000      0.5000    
       0.5000      0.5000      0.5000      0.5000      0.5000      0.5000      0.5000      0.5000      0.5000      0.5000    
       0.5000      0.5000      0.5000      0.5000      0.5000      0.5000       1.500       1.000       1.000       1.000    
        1.000       1.000       1.000       1.000       1.000       1.000       0.000       0.000       0.000       0.000    
   6   0.5000      0.5000      0.5000      0.5000      0.5000      0.5000      0.5000      0.5000      0.5000      0.5000    
       0.5000      0.5000      0.5000      0.5000      0.5000      0.5000      0.5000      0.5000      0.5000      0.5000    
       0.5000      0.5000      0.5000      0.5000      0.5000       1.500       1.000       1.000       1.000       1.000    
        1.000       1.000       1.000       1.000       1.000       1.000       1.000       0.000       0.000       0.000    
   7   0.5000      0.5000      0.5000      0.5000      0.5000      0.5000      0.5000      0.5000      0.5000      0.5000    
       0.5000      0.5000      0.5000      0.5000      0.5000      0.5000      0.5000      0.5000      0.5000      0.5000    
       0.5000      0.5000      0.5000      0.5000       1.500       1.000       1.000       1.000       1.000       1.000    
        1.000       1.000       1.000       1.000       1.000       1.000       1.000       1.000       0.000       0.000    
   8   0.5000      0.5000      0.5000      0.5000      0.5000      0.5000      0.5000      0.5000      0.5000      0.5000    
       0.5000      0.5000      0.5000      0.5000      0.5000      0.5000      0.5000      0.5000      0.5000      0.5000    
       0.5000      0.5000      0.5000       1.500       1.000       1.000       1.000       1.000       1.000       1.000    
        1.000       1.000       1.000       1.000       1.000       1.000       1.000       1.000       1.000       0.000    
   9    0.000      0.5000      0.5000      0.5000      0.5000      0.5000      0.5000      0.5000      0.5000      0.5000    
       0.5000      0.5000      0.5000      0.5000      0.5000      0.5000      0.5000      0.5000      0.5000      0.5000    
       0.5000      0.5000       1.500       1.000       1.000       1.000       1.000       1.000       1.000       1.000    
        1.000       1.000       1.000       1.000       1.000       1.000       1.000       1.000       1.000       1.000    
  10    0.000       0.000       0.000      0.5000      0.5000      0.5000      0.5000      0.5000      0.5000      0.5000    
       0.5000      0.5000      0.5000      0.5000      0.5000      0.5000      0.5000      0.5000      0.5000      0.5000    
       0.5000       1.500       1.000       1.000       1.000       1.000       1.000       1.000       1.000       1.000    
        1.000       1.000       1.000       1.000       1.000       1.000       1.000       1.000       1.000       1.000    
  11    0.000       0.000       0.000       0.000      0.5000      0.5000      0.5000      0.5000      0.5000      0.5000    
       0.5000      0.5000      0.5000      0.5000      0.5000      0.5000      0.5000      0.5000      0.5000      0.5000    
        1.500       1.000       1.000       1.000       1.000       1.000       1.000       1.000       1.000       1.000    
        1.000       1.000       1.000       1.000       1.000       1.000       1.000       1.000       1.000       1.000    
  12    0.000       0.000       0.000       0.000       0.000       0.000      0.5000      0.5000      0.5000      0.5000    
       0.5000      0.5000      0.5000      0.5000      0.5000      0.5000      0.5000      0.5000      0.5000       1.500    
        1.000       1.000       1.000       1.000       1.000       1.000       1.000       1.000       1.000       1.000    
        1.000       1.000       1.000       1.000       1.000       1.000       1.000       1.000       1.000       1.000    
  13    0.000       0.000       0.000       0.000       0.000       0.000       0.000      0.5000      0.5000      0.5000    
       0.5000      0.5000      0.5000      0.5000      0.5000      0.5000      0.5000      0.5000       1.500       1.000    
        1.000       1.000       1.000       1.000       1.000       1.000       1.000       1.000       1.000       1.000    
        1.000       1.000       1.000       1.000       1.000       1.000       1.000       1.000       1.000       1.000    
  14    0.000       0.000       0.000       0.000       0.000       0.000       0.000       0.000       0.000      0.5000    
       0.5000      0.5000      0.5000      0.5000      0.5000      0.5000      0.5000       1.500       1.000       1.000    
        1.000       1.000       1.000       1.000       1.000       1.000       1.000       1.000       1.000       1.000    
        1.000       1.000       1.000       1.000       1.000       1.000       1.000       1.000       1.000       1.000    
  15    0.000       0.000       0.000       0.000       0.000       0.000       0.000       0.000       0.000       0.000    
       0.5000      0.5000      0.5000      0.5000      0.5000      0.5000       1.500       1.000       1.000       1.000    
        1.000       1.000       1.000       1.000       1.000       1.000       1.000       1.000       1.000       1.000    
        1.000       1.000       1.000       1.000       1.000       1.000       1.000       1.000       1.000       1.000    
  16    0.000       0.000       0.000       0.000       0.000       0.000       0.000       0.000       0.000       0.000    
        0.000      0.5000      0.5000      0.5000      0.5000       1.500       1.500       1.000       1.000       1.000    
        1.000       1.000       1.000       1.000       1.000       1.000       1.000       1.000       1.000       1.000    
        1.000       1.000       1.000       1.000       1.000       1.000       1.000       1.000       1.000       1.000    
  17    0.000       0.000       0.000       0.000       0.000       0.000       0.000       0.000       0.000       0.000    
        0.000       0.000       0.000      0.5000       1.500       1.500       1.000       1.000       1.000       1.000    
        1.000       1.000       1.000       1.000       1.000       1.000       1.000       1.000       1.000       1.000    
        1.000       1.000       1.000       1.000       1.000       1.000       1.000       1.000       1.000       1.000    
  18    0.000       0.000       0.000       0.000       0.000       0.000       0.000       0.000       0.000       0.000    
        0.000       0.000       0.000       1.000       1.000       1.000       1.000       1.000       1.000       1.000    
        1.000       1.000       1.000       1.000       1.000       1.000       1.000       1.000       1.000       1.000    
        1.000       1.000       1.000       1.000       1.000       1.000       1.000       1.000       1.000       1.000    
  19    0.000       0.000       0.000       0.000       0.000       0.000       0.000       0.000       0.000       0.000    
        0.000       0.000       0.000       0.000       1.000       1.000       1.000       1.000       1.000       1.000    
        1.000       1.000       1.000       1.000       1.000       1.000       1.000       1.000       1.000       1.000    
        1.000       1.000       1.000       1.000       1.000       1.000       1.000       1.000       1.000       1.000    
  20    0.000       0.000       0.000       0.000       0.000       0.000       0.000       0.000       0.000       0.000    
        0.000       0.000       0.000       0.000       0.000       0.000       1.000       1.000       1.000       1.000    
        1.000       1.000       1.000       1.000       1.000       1.000       1.000       1.000       1.000       1.000    
        1.000       1.000       1.000       1.000       1.000       1.000       1.000       1.000       1.000       1.000    
  21    0.000       0.000       0.000       0.000       0.000       0.000       0.000       0.000       0.000       0.000    
        0.000       0.000       0.000       0.000       0.000       0.000       0.000       1.000       1.000       1.000    
        1.000       1.000       1.000       1.000       1.000       1.000       1.000       1.000       1.000       1.000    
        1.000       1.000       1.000       1.000       1.000       1.000       1.000       1.000       1.000       1.000    
  22    0.000       0.000       0.000       0.000       0.000       0.000       0.000       0.000       0.000       0.000    
        0.000       0.000       0.000       0.000       0.000       0.000       0.000       0.000       0.000       1.000    
        1.000       1.000       1.000       1.000       1.000       1.000       1.000       1.000       1.000       1.000    
        1.000       1.000       1.000       1.000       1.000       1.000       1.000       1.000       1.000       0.000    
  23    0.000       0.000       0.000       0.000       0.000       0.000       0.000       0.000       0.000       0.000    
        0.000       0.000       0.000       0.000       0.000       0.000       0.000       0.000       0.000       0.000    
        0.000       1.000       1.000       1.000       1.000       1.000       1.000       1.000       1.000       1.000    
        1.000       1.000       1.000       1.000       1.000       1.000       1.000       1.000       1.000       0.000    

         SPECIFIC STORAGE =  1.000000E-05 FOR LAYER   1

           SPECIFIC YIELD FOR LAYER   1 WILL BE DEFINED BY PARAMETERS
 (PRINT FLAG=  12)

           SPECIFIC YIELD is defined by the following parameters:
 sy01      
 sy02      


                     SPECIFIC YIELD FOR LAYER   1

            1           2           3           4           5           6           7           8           9          10
           11          12          13          14          15          16          17          18          19          20
           21          22          23          24          25          26          27          28          29          30
           31          32          33          34          35          36          37          38          39          40
 ........................................................................................................................
   1   1.0000E-02  1.0000E-02  1.0000E-02  1.0000E-02  1.0000E-02  1.0000E-02  1.0000E-02  1.0000E-02  1.0000E-02  1.0000E-02
       1.0000E-02  1.0000E-02  1.0000E-02  1.0000E-02  1.0000E-02  1.0000E-02  1.0000E-02  1.0000E-02  1.0000E-02  1.0000E-02
       1.0000E-02  1.0000E-02  1.0000E-02  1.0000E-02  1.0000E-02  1.0000E-02  1.0000E-02   0.000       0.000       0.000    
        0.000       0.000       0.000       0.000       0.000       0.000       0.000       0.000       0.000       0.000    
   2   1.0000E-02  1.0000E-02  1.0000E-02  1.0000E-02  1.0000E-02  1.0000E-02  1.0000E-02  1.0000E-02  1.0000E-02  1.0000E-02
       1.0000E-02  1.0000E-02  1.0000E-02  1.0000E-02  1.0000E-02  1.0000E-02  1.0000E-02  1.0000E-02  1.0000E-02  1.0000E-02
       1.0000E-02  1.0000E-02  1.0000E-02  1.0000E-02  1.0000E-02  1.0000E-02  1.0000E-02  1.0000E-02  1.0000E-02  2.0000E-02
       1.0000E-02  1.0000E-02   0.000       0.000       0.000       0.000       0.000       0.000       0.000       0.000    
   3   1.0000E-02  1.0000E-02  1.0000E-02  1.0000E-02  1.0000E-02  1.0000E-02  1.0000E-02  1.0000E-02  1.0000E-02  1.0000E-02
       1.0000E-02  1.0000E-02  1.0000E-02  1.0000E-02  1.0000E-02  1.0000E-02  1.0000E-02  1.0000E-02  1.0000E-02  1.0000E-02
       1.0000E-02  1.0000E-02  1.0000E-02  1.0000E-02  1.0000E-02  1.0000E-02  1.0000E-02  1.0000E-02  2.0000E-02  1.0000E-02
       1.0000E-02  1.0000E-02  1.0000E-02   0.000       0.000       0.000       0.000       0.000       0.000       0.000    
   4   1.0000E-02  1.0000E-02  1.0000E-02  1.0000E-02  1.0000E-02  1.0000E-02  1.0000E-02  1.0000E-02  1.0000E-02  1.0000E-02
       1.0000E-02  1.0000E-02  1.0000E-02  1.0000E-02  1.0000E-02  1.0000E-02  1.0000E-02  1.0000E-02  1.0000E-02  1.0000E-02
       1.0000E-02  1.0000E-02  1.0000E-02  1.0000E-02  1.0000E-02  1.0000E-02  1.0000E-02  2.0000E-02  1.0000E-02  1.0000E-02
       1.0000E-02  1.0000E-02  1.0000E-02  1.0000E-02   0.000       0.000       0.000       0.000       0.000       0.000    
   5   1.0000E-02  1.0000E-02  1.0000E-02  1.0000E-02  1.0000E-02  1.0000E-02  1.0000E-02  1.0000E-02  1.0000E-02  1.0000E-02
       1.0000E-02  1.0000E-02  1.0000E-02  1.0000E-02  1.0000E-02  1.0000E-02  1.0000E-02  1.0000E-02  1.0000E-02  1.0000E-02
       1.0000E-02  1.0000E-02  1.0000E-02  1.0000E-02  1.0000E-02  1.0000E-02  2.0000E-02  1.0000E-02  1.0000E-02  1.0000E-02
       1.0000E-02  1.0000E-02  1.0000E-02  1.0000E-02  1.0000E-02  1.0000E-02   0.000       0.000       0.000       0.000    
   6   1.0000E-02  1.0000E-02  1.0000E-02  1.0000E-02  1.0000E-02  1.0000E-02  1.0000E-02  1.0000E-02  1.0000E-02  1.0000E-02
       1.0000E-02  1.0000E-02  1.0000E-02  1.0000E-02  1.0000E-02  1.0000E-02  1.0000E-02  1.0000E-02  1.0000E-02  1.0000E-02
       1.0000E-02  1.0000E-02  1.0000E-02  1.0000E-02  1.0000E-02  2.0000E-02  1.0000E-02  1.0000E-02  1.0000E-02  1.0000E-02
       1.0000E-02  1.0000E-02  1.0000E-02  1.0000E-02  1.0000E-02  1.0000E-02  1.0000E-02   0.000       0.000       0.000    
   7   1.0000E-02  1.0000E-02  1.0000E-02  1.0000E-02  1.0000E-02  1.0000E-02  1.0000E-02  1.0000E-02  1.0000E-02  1.0000E-02
       1.0000E-02  1.0000E-02  1.0000E-02  1.0000E-02  1.0000E-02  1.0000E-02  1.0000E-02  1.0000E-02  1.0000E-02  1.0000E-02
       1.0000E-02  1.0000E-02  1.0000E-02  1.0000E-02  2.0000E-02  1.0000E-02  1.0000E-02  1.0000E-02  1.0000E-02  1.0000E-02
       1.0000E-02  1.0000E-02  1.0000E-02  1.0000E-02  1.0000E-02  1.0000E-02  1.0000E-02  1.0000E-02   0.000       0.000    
   8   1.0000E-02  1.0000E-02  1.0000E-02  1.0000E-02  1.0000E-02  1.0000E-02  1.0000E-02  1.0000E-02  1.0000E-02  1.0000E-02
       1.0000E-02  1.0000E-02  1.0000E-02  1.0000E-02  1.0000E-02  1.0000E-02  1.0000E-02  1.0000E-02  1.0000E-02  1.0000E-02
       1.0000E-02  1.0000E-02  1.0000E-02  2.0000E-02  1.0000E-02  1.0000E-02  1.0000E-02  1.0000E-02  1.0000E-02  1.0000E-02
       1.0000E-02  1.0000E-02  1.0000E-02  1.0000E-02  1.0000E-02  1.0000E-02  1.0000E-02  1.0000E-02  1.0000E-02   0.000    
   9    0.000      1.0000E-02  1.0000E-02  1.0000E-02  1.0000E-02  1.0000E-02  1.0000E-02  1.0000E-02  1.0000E-02  1.0000E-02
       1.0000E-02  1.0000E-02  1.0000E-02  1.0000E-02  1.0000E-02  1.0000E-02  1.0000E-02  1.0000E-02  1.0000E-02  1.0000E-02
       1.0000E-02  1.0000E-02  2.0000E-02  1.0000E-02  1.0000E-02  1.0000E-02  1.0000E-02  1.0000E-02  1.0000E-02  1.0000E-02
       1.0000E-02  1.0000E-02  1.0000E-02  1.0000E-02  1.0000E-02  1.0000E-02  1.0000E-02  1.0000E-02  1.0000E-02  1.0000E-02
  10    0.000       0.000       0.000      1.0000E-02  1.0000E-02  1.0000E-02  1.0000E-02  1.0000E-02  1.0000E-02  1.0000E-02
       1.0000E-02  1.0000E-02  1.0000E-02  1.0000E-02  1.0000E-02  1.0000E-02  1.0000E-02  1.0000E-02  1.0000E-02  1.0000E-02
       1.0000E-02  2.0000E-02  1.0000E-02  1.0000E-02  1.0000E-02  1.0000E-02  1.0000E-02  1.0000E-02  1.0000E-02  1.0000E-02
       1.0000E-02  1.0000E-02  1.0000E-02  1.0000E-02  1.0000E-02  1.0000E-02  1.0000E-02  1.0000E-02  1.0000E-02  1.0000E-02
  11    0.000       0.000       0.000       0.000      1.0000E-02  1.0000E-02  1.0000E-02  1.0000E-02  1.0000E-02  1.0000E-02
       1.0000E-02  1.0000E-02  1.0000E-02  1.0000E-02  1.0000E-02  1.0000E-02  1.0000E-02  1.0000E-02  1.0000E-02  1.0000E-02
       2.0000E-02  1.0000E-02  1.0000E-02  1.0000E-02  1.0000E-02  1.0000E-02  1.0000E-02  1.0000E-02  1.0000E-02  1.0000E-02
       1.0000E-02  1.0000E-02  1.0000E-02  1.0000E-02  1.0000E-02  1.0000E-02  1.0000E-02  1.0000E-02  1.0000E-02  1.0000E-02
  12    0.000       0.000       0.000       0.000       0.000       0.000      1.0000E-02  1.0000E-02  1.0000E-02  1.0000E-02
       1.0000E-02  1.0000E-02  1.0000E-02  1.0000E-02  1.0000E-02  1.0000E-02  1.0000E-02  1.0000E-02  1.0000E-02  2.0000E-02
       1.0000E-02  1.0000E-02  1.0000E-02  1.0000E-02  1.0000E-02  1.0000E-02  1.0000E-02  1.0000E-02  1.0000E-02  1.0000E-02
       1.0000E-02  1.0000E-02  1.0000E-02  1.0000E-02  1.0000E-02  1.0000E-02  1.0000E-02  1.0000E-02  1.0000E-02  1.0000E-02
  13    0.000       0.000       0.000       0.000       0.000       0.000       0.000      1.0000E-02  1.0000E-02  1.0000E-02
       1.0000E-02  1.0000E-02  1.0000E-02  1.0000E-02  1.0000E-02  1.0000E-02  1.0000E-02  1.0000E-02  2.0000E-02  1.0000E-02
       1.0000E-02  1.0000E-02  1.0000E-02  1.0000E-02  1.0000E-02  1.0000E-02  1.0000E-02  1.0000E-02  1.0000E-02  1.0000E-02
       1.0000E-02  1.0000E-02  1.0000E-02  1.0000E-02  1.0000E-02  1.0000E-02  1.0000E-02  1.0000E-02  1.0000E-02  1.0000E-02
  14    0.000       0.000       0.000       0.000       0.000       0.000       0.000       0.000       0.000      1.0000E-02
       1.0000E-02  1.0000E-02  1.0000E-02  1.0000E-02  1.0000E-02  1.0000E-02  1.0000E-02  2.0000E-02  1.0000E-02  1.0000E-02
       1.0000E-02  1.0000E-02  1.0000E-02  1.0000E-02  1.0000E-02  1.0000E-02  1.0000E-02  1.0000E-02  1.0000E-02  1.0000E-02
       1.0000E-02  1.0000E-02  1.0000E-02  1.0000E-02  1.0000E-02  1.0000E-02  1.0000E-02  1.0000E-02  1.0000E-02  1.0000E-02
  15    0.000       0.000       0.000       0.000       0.000       0.000       0.000       0.000       0.000       0.000    
       1.0000E-02  1.0000E-02  1.0000E-02  1.0000E-02  1.0000E-02  1.0000E-02  2.0000E-02  1.0000E-02  1.0000E-02  1.0000E-02
       1.0000E-02  1.0000E-02  1.0000E-02  1.0000E-02  1.0000E-02  1.0000E-02  1.0000E-02  1.0000E-02  1.0000E-02  1.0000E-02
       1.0000E-02  1.0000E-02  1.0000E-02  1.0000E-02  1.0000E-02  1.0000E-02  1.0000E-02  1.0000E-02  1.0000E-02  1.0000E-02
  16    0.000       0.000       0.000       0.000       0.000       0.000       0.000       0.000       0.000       0.000    
        0.000      1.0000E-02  1.0000E-02  1.0000E-02  1.0000E-02  2.0000E-02  2.0000E-02  1.0000E-02  1.0000E-02  1.0000E-02
       1.0000E-02  1.0000E-02  1.0000E-02  1.0000E-02  1.0000E-02  1.0000E-02  1.0000E-02  1.0000E-02  1.0000E-02  1.0000E-02
       1.0000E-02  1.0000E-02  1.0000E-02  1.0000E-02  1.0000E-02  1.0000E-02  1.0000E-02  1.0000E-02  1.0000E-02  1.0000E-02
  17    0.000       0.000       0.000       0.000       0.000       0.000       0.000       0.000       0.000       0.000    
        0.000       0.000       0.000      1.0000E-02  2.0000E-02  2.0000E-02  1.0000E-02  1.0000E-02  1.0000E-02  1.0000E-02
       1.0000E-02  1.0000E-02  1.0000E-02  1.0000E-02  1.0000E-02  1.0000E-02  1.0000E-02  1.0000E-02  1.0000E-02  1.0000E-02
       1.0000E-02  1.0000E-02  1.0000E-02  1.0000E-02  1.0000E-02  1.0000E-02  1.0000E-02  1.0000E-02  1.0000E-02  1.0000E-02
  18    0.000       0.000       0.000       0.000       0.000       0.000       0.000       0.000       0.000       0.000    
        0.000       0.000       0.000      1.0000E-02  1.0000E-02  1.0000E-02  1.0000E-02  1.0000E-02  1.0000E-02  1.0000E-02
       1.0000E-02  1.0000E-02  1.0000E-02  1.0000E-02  1.0000E-02  1.0000E-02  1.0000E-02  1.0000E-02  1.0000E-02  1.0000E-02
       1.0000E-02  1.0000E-02  1.0000E-02  1.0000E-02  1.0000E-02  1.0000E-02  1.0000E-02  1.0000E-02  1.0000E-02  1.0000E-02
  19    0.000       0.000       0.000       0.000       0.000       0.000       0.000       0.000       0.000       0.000    
        0.000       0.000       0.000       0.000      1.0000E-02  1.0000E-02  1.0000E-02  1.0000E-02  1.0000E-02  1.0000E-02
       1.0000E-02  1.0000E-02  1.0000E-02  1.0000E-02  1.0000E-02  1.0000E-02  1.0000E-02  1.0000E-02  1.0000E-02  1.0000E-02
       1.0000E-02  1.0000E-02  1.0000E-02  1.0000E-02  1.0000E-02  1.0000E-02  1.0000E-02  1.0000E-02  1.0000E-02  1.0000E-02
  20    0.000       0.000       0.000       0.000       0.000       0.000       0.000       0.000       0.000       0.000    
        0.000       0.000       0.000       0.000       0.000       0.000      1.0000E-02  1.0000E-02  1.0000E-02  1.0000E-02
       1.0000E-02  1.0000E-02  1.0000E-02  1.0000E-02  1.0000E-02  1.0000E-02  1.0000E-02  1.0000E-02  1.0000E-02  1.0000E-02
       1.0000E-02  1.0000E-02  1.0000E-02  1.0000E-02  1.0000E-02  1.0000E-02  1.0000E-02  1.0000E-02  1.0000E-02  1.0000E-02
  21    0.000       0.000       0.000       0.000       0.000       0.000       0.000       0.000       0.000       0.000    
        0.000       0.000       0.000       0.000       0.000       0.000       0.000      1.0000E-02  1.0000E-02  1.0000E-02
       1.0000E-02  1.0000E-02  1.0000E-02  1.0000E-02  1.0000E-02  1.0000E-02  1.0000E-02  1.0000E-02  1.0000E-02  1.0000E-02
       1.0000E-02  1.0000E-02  1.0000E-02  1.0000E-02  1.0000E-02  1.0000E-02  1.0000E-02  1.0000E-02  1.0000E-02  1.0000E-02
  22    0.000       0.000       0.000       0.000       0.000       0.000       0.000       0.000       0.000       0.000    
        0.000       0.000       0.000       0.000       0.000       0.000       0.000       0.000       0.000      1.0000E-02
       1.0000E-02  1.0000E-02  1.0000E-02  1.0000E-02  1.0000E-02  1.0000E-02  1.0000E-02  1.0000E-02  1.0000E-02  1.0000E-02
       1.0000E-02  1.0000E-02  1.0000E-02  1.0000E-02  1.0000E-02  1.0000E-02  1.0000E-02  1.0000E-02  1.0000E-02   0.000    
  23    0.000       0.000       0.000       0.000       0.000       0.000       0.000       0.000       0.000       0.000    
        0.000       0.000       0.000       0.000       0.000       0.000       0.000       0.000       0.000       0.000    
        0.000      1.0000E-02  1.0000E-02  1.0000E-02  1.0000E-02  1.0000E-02  1.0000E-02  1.0000E-02  1.0000E-02  1.0000E-02
       1.0000E-02  1.0000E-02  1.0000E-02  1.0000E-02  1.0000E-02  1.0000E-02  1.0000E-02  1.0000E-02  1.0000E-02   0.000    

 RIV -- RIVER PACKAGE, VERSION 7, 5/2/2005 INPUT READ FROM UNIT 5021
 #	RIV:	River	package	file	created	on	2/4/2022	by	ModelMuse	version	4.3.0.0.									
 No named parameters
 MAXIMUM OF    170 ACTIVE RIVER REACHES AT ONE TIME
 CELL-BY-CELL FLOWS WILL BE SAVED ON UNIT    9
 AUXILIARY RIVER VARIABLE: IFACE           


     0 River parameters

 RCH -- RECHARGE PACKAGE, VERSION 7, 5/2/2005 INPUT READ FROM UNIT 5024
 # RCH: Recharge package file created on 2/4/2022 by ModelMuse version 4.3.0.0.
 No named parameters
 OPTION 1 -- RECHARGE TO TOP LAYER
 CELL-BY-CELL FLOWS WILL BE SAVED ON UNIT    9


     0 Recharge parameters
1
                            STRESS PERIOD NO.    1, LENGTH =   10000.00    
                            -----------------------------------------------

                              NUMBER OF TIME STEPS = 10000

                               MULTIPLIER FOR DELT =     1.000

                            INITIAL TIME STEP SIZE =   1.000000    

 REACH NO.  LAYER   ROW   COL     STAGE      CONDUCTANCE     BOTTOM EL.         IFACE           
 -----------------------------------------------------------------------------------------------
      1      1      4     11       276.0          0.3000E+05       275.1           0.000    
      2      1      6     17       279.8          0.3000E+05       278.9           0.000    
      3      1      6     16       258.5          0.3000E+05       257.6           0.000    
      4      1      5     16       264.0          0.3000E+05       263.1           0.000    
      5      1      5     15       261.6          0.3000E+05       260.7           0.000    
      6      1      5     14       257.4          0.3000E+05       256.5           0.000    
      7      1      5     13       277.5          0.3000E+05       276.6           0.000    
      8      1      5     12       272.4          0.3000E+05       271.5           0.000    
      9      1      4     12       292.1          0.3000E+05       291.2           0.000    
     10      1      4     11       276.0          0.3000E+05       275.1           0.000    
     11      1      4     10       293.6          0.3000E+05       292.7           0.000    
     12      1      3     10       303.4          0.3000E+05       302.5           0.000    
     13      1      3      9       297.6          0.3000E+05       296.7           0.000    
     14      1      3      8       312.9          0.3000E+05       312.0           0.000    
     15      1      2      8       315.0          0.3000E+05       314.1           0.000    
     16      1      2      7       308.8          0.3000E+05       307.9           0.000    
     17      1      2      6       317.7          0.3000E+05       316.8           0.000    
     18      1      3      6       335.4          0.3000E+05       334.5           0.000    
     19      1      3      5       327.2          0.3000E+05       326.3           0.000    
     20      1      3      4       336.5          0.3000E+05       335.6           0.000    
     21      1      6     25       242.6          0.3000E+05       241.7           0.000    
     22      1      6     24       240.5          0.3000E+05       239.6           0.000    
     23      1      6     23       255.3          0.3000E+05       254.4           0.000    
     24      1      7     23       257.8          0.3000E+05       256.9           0.000    
     25      1      7     22       259.4          0.3000E+05       258.5           0.000    
     26      1      8     22       265.1          0.3000E+05       264.2           0.000    
     27      1      8     21       271.0          0.3000E+05       270.1           0.000    
     28      1      9     21       272.7          0.3000E+05       271.8           0.000    
     29      1      9     20       274.6          0.3000E+05       273.7           0.000    
     30      1      9     19       279.6          0.3000E+05       278.7           0.000    
     31      1      9     18       281.7          0.3000E+05       280.8           0.000    
     32      1     10     18       292.7          0.3000E+05       291.8           0.000    
     33      1     10     17       293.1          0.3000E+05       292.2           0.000    
     34      1     11     17       295.5          0.3000E+05       294.6           0.000    
     35      1     12     17       294.8          0.3000E+05       293.9           0.000    
     36      1     12     16       303.0          0.3000E+05       302.1           0.000    
     37      1      5     26       239.4          0.3000E+05       238.5           0.000    
     38      1      9     31       197.8          0.3000E+05       196.9           0.000    
     39      1      9     30       222.6          0.3000E+05       221.7           0.000    
     40      1     10     30       214.6          0.3000E+05       213.7           0.000    
     41      1     10     29       226.4          0.3000E+05       225.5           0.000    
     42      1     11     29       224.6          0.3000E+05       223.7           0.000    
     43      1     11     29       224.6          0.3000E+05       223.7           0.000    
     44      1     11     28       229.6          0.3000E+05       228.7           0.000    
     45      1     12     28       233.0          0.3000E+05       232.1           0.000    
     46      1     12     27       235.6          0.3000E+05       234.7           0.000    
     47      1      6     17       279.8          0.3000E+05       278.9           0.000    
     48      1      6     16       258.5          0.3000E+05       257.6           0.000    
     49      1      6     15       285.4          0.3000E+05       284.5           0.000    
     50      1      7     15       276.1          0.3000E+05       275.2           0.000    
     51      1      7     14       290.9          0.3000E+05       290.0           0.000    
     52      1      8     14       273.8          0.3000E+05       272.9           0.000    
     53      1      9     14       301.4          0.3000E+05       300.5           0.000    
     54      1      9     13       296.6          0.3000E+05       295.7           0.000    
     55      1      8     13       300.8          0.3000E+05       299.9           0.000    
     56      1      8     12       300.8          0.3000E+05       299.9           0.000    
     57      1      8     11       310.0          0.3000E+05       309.1           0.000    
     58      1     12     36       184.6          0.3000E+05       183.7           0.000    
     59      1     11     36       195.4          0.3000E+05       194.5           0.000    
     60      1     11     35       189.1          0.3000E+05       188.2           0.000    
     61      1     10     35       199.7          0.3000E+05       198.8           0.000    
     62      1     10     34       189.1          0.3000E+05       188.2           0.000    
     63      1     10     33       195.7          0.3000E+05       194.8           0.000    
     64      1     10     32       198.4          0.3000E+05       197.5           0.000    
     65      1     10     31       215.2          0.3000E+05       214.3           0.000    
     66      1      9     31       197.8          0.3000E+05       196.9           0.000    
     67      1      8     31       206.7          0.3000E+05       205.8           0.000    
     68      1      8     30       204.5          0.3000E+05       203.6           0.000    
     69      1      8     29       209.1          0.3000E+05       208.2           0.000    
     70      1      8     28       230.2          0.3000E+05       229.3           0.000    
     71      1      7     28       212.2          0.3000E+05       211.3           0.000    
     72      1      7     27       225.5          0.3000E+05       224.6           0.000    
     73      1      7     26       242.5          0.3000E+05       241.6           0.000    
     74      1      6     26       219.5          0.3000E+05       218.6           0.000    
     75      1      5     26       239.4          0.3000E+05       238.5           0.000    
     76      1      5     25       233.5          0.3000E+05       232.6           0.000    
     77      1      6     25       242.6          0.3000E+05       241.7           0.000    
     78      1      6     24       240.5          0.3000E+05       239.6           0.000    
     79      1      5     24       233.9          0.3000E+05       233.0           0.000    
     80      1      5     23       236.0          0.3000E+05       235.1           0.000    
     81      1      5     22       247.0          0.3000E+05       246.1           0.000    
     82      1      5     21       252.4          0.3000E+05       251.5           0.000    
     83      1      5     20       254.7          0.3000E+05       253.8           0.000    
     84      1      4     20       266.5          0.3000E+05       265.6           0.000    
     85      1      4     19       269.1          0.3000E+05       268.2           0.000    
     86      1      5     19       270.2          0.3000E+05       269.3           0.000    
     87      1      5     18       259.2          0.3000E+05       258.3           0.000    
     88      1      5     17       275.5          0.3000E+05       274.6           0.000    
     89      1      6     17       279.8          0.3000E+05       278.9           0.000    
     90      1     12     27       235.6          0.3000E+05       234.7           0.000    
     91      1     12     26       239.2          0.3000E+05       238.3           0.000    
     92      1     12     26       239.2          0.3000E+05       238.3           0.000    
     93      1     12     25       237.8          0.3000E+05       236.9           0.000    
     94      1     12     24       242.2          0.3000E+05       241.3           0.000    
     95      1     12     23       247.6          0.3000E+05       246.7           0.000    
     96      1     12     22       256.6          0.3000E+05       255.7           0.000    
     97      1     12     22       256.6          0.3000E+05       255.7           0.000    
     98      1     13     22       268.4          0.3000E+05       267.5           0.000    
     99      1     13     22       268.4          0.3000E+05       267.5           0.000    
    100      1     13     21       265.3          0.3000E+05       264.4           0.000    
    101      1     13     21       265.3          0.3000E+05       264.4           0.000    
    102      1     14     20       272.6          0.3000E+05       271.7           0.000    
    103      1     14     19       279.1          0.3000E+05       278.2           0.000    
    104      1     15     19       285.8          0.3000E+05       284.9           0.000    
    105      1     15     18       286.1          0.3000E+05       285.2           0.000    
    106      1     15     40       169.8          0.3000E+05       168.9           0.000    
    107      1     15     39       175.1          0.3000E+05       174.2           0.000    
    108      1     15     38       194.7          0.3000E+05       193.8           0.000    
    109      1     14     38       176.9          0.3000E+05       176.0           0.000    
    110      1     14     37       190.0          0.3000E+05       189.1           0.000    
    111      1     13     36       194.6          0.3000E+05       193.7           0.000    
    112      1     13     37       183.8          0.3000E+05       182.9           0.000    
    113      1     12     37       193.5          0.3000E+05       192.6           0.000    
    114      1     12     36       184.6          0.3000E+05       183.7           0.000    
    115      1     15     40       169.8          0.3000E+05       168.9           0.000    
    116      1     15     39       175.1          0.3000E+05       174.2           0.000    
    117      1     15     38       194.7          0.3000E+05       193.8           0.000    
    118      1     16     38       190.4          0.3000E+05       189.5           0.000    
    119      1     17     38       190.0          0.3000E+05       189.1           0.000    
    120      1     18     38       207.9          0.3000E+05       207.0           0.000    
    121      1     18     37       202.5          0.3000E+05       201.6           0.000    
    122      1     18     36       213.1          0.3000E+05       212.2           0.000    
    123      1     19     36       213.7          0.3000E+05       212.8           0.000    
    124      1     19     35       214.0          0.3000E+05       213.1           0.000    
    125      1     19     34       219.5          0.3000E+05       218.6           0.000    
    126      1     20     34       229.8          0.3000E+05       228.9           0.000    
    127      1     20     33       226.4          0.3000E+05       225.5           0.000    
    128      1     20     32       233.4          0.3000E+05       232.5           0.000    
    129      1     21     32       234.2          0.3000E+05       233.3           0.000    
    130      1     21     31       239.5          0.3000E+05       238.6           0.000    
    131      1     12     36       184.6          0.3000E+05       183.7           0.000    
    132      1     13     36       194.6          0.3000E+05       193.7           0.000    
    133      1     13     35       201.0          0.3000E+05       200.1           0.000    
    134      1     12     35       198.9          0.3000E+05       198.0           0.000    
    135      1     12     34       199.8          0.3000E+05       198.9           0.000    
    136      1     11     34       204.9          0.3000E+05       204.0           0.000    
    137      1     11     33       207.6          0.3000E+05       206.7           0.000    
    138      1     11     32       215.3          0.3000E+05       214.4           0.000    
    139      1     12     32       221.4          0.3000E+05       220.5           0.000    
    140      1     12     31       216.0          0.3000E+05       215.1           0.000    
    141      1     13     31       227.4          0.3000E+05       226.5           0.000    
    142      1     13     30       224.0          0.3000E+05       223.1           0.000    
    143      1     14     30       225.8          0.3000E+05       224.9           0.000    
    144      1     15     30       234.4          0.3000E+05       233.5           0.000    
    145      1     15     29       234.1          0.3000E+05       233.2           0.000    
    146      1     17     29       250.9          0.3000E+05       250.0           0.000    
    147      1     16     29       233.2          0.3000E+05       232.3           0.000    
    148      1     16     28       239.7          0.3000E+05       238.8           0.000    
    149      1     17     28       241.3          0.3000E+05       240.4           0.000    
    150      1     18     28       251.5          0.3000E+05       250.6           0.000    
    151      1     18     27       254.3          0.3000E+05       253.4           0.000    
    152      1     19     27       256.3          0.3000E+05       255.4           0.000    
    153      1     12     35       198.9          0.3000E+05       198.0           0.000    
    154      1     12     34       199.8          0.3000E+05       198.9           0.000    
    155      1     13     34       206.7          0.3000E+05       205.8           0.000    
    156      1     13     33       210.3          0.3000E+05       209.4           0.000    
    157      1     14     33       211.8          0.3000E+05       210.9           0.000    
    158      1     15     33       211.2          0.3000E+05       210.3           0.000    
    159      1     16     33       218.7          0.3000E+05       217.8           0.000    
    160      1     17     33       228.1          0.3000E+05       227.2           0.000    
    161      1     17     32       230.2          0.3000E+05       229.3           0.000    
    162      1     18     32       226.2          0.3000E+05       225.3           0.000    
    163      1     19     32       237.7          0.3000E+05       236.8           0.000    
    164      1     19     31       233.2          0.3000E+05       232.3           0.000    
    165      1     19     30       235.6          0.3000E+05       234.7           0.000    
    166      1     20     30       245.7          0.3000E+05       244.8           0.000    
    167      1     20     29       249.9          0.3000E+05       249.0           0.000    
    168      1     21     29       247.7          0.3000E+05       246.8           0.000    
    169      1     22     29       252.2          0.3000E+05       251.3           0.000    
    170      1     22     28       252.7          0.3000E+05       251.8           0.000    

    170 RIVER REACHES

                 RECHARGE =   0.00000    
 
 SOLVING FOR HEAD 
                                                   Max.-Head-Change                        Max.-Flux-Residual
  Residual-Control   Outer-Iter.   Inner-Iter.     Column Row Layer    Max.-Head-Change    Column Row Layer    Max.-Flux-Residual            L2-New               L2-Old           Solver-Max-Delh
          0                 1           2            12    5     1       0.3567410646E+02      31   21    1       0.2730819420E+05      0.5536660502E+05      0.0000000000E+00      0.3567410646E+02
          1                 1           0            12    5     1       0.2497187410E+02      31    9    1      -0.2009909814E+07      0.5069258004E+07      0.5536660502E+05      0.3567410646E+02
          2                 1           0            12    5     1       0.1748031157E+02      31    9    1      -0.1408109583E+07      0.3559756821E+07      0.5069258004E+07      0.3567410646E+02
          3                 1           0            12    5     1       0.1223621789E+02      31    9    1      -0.9868410613E+06      0.2503154543E+07      0.3559756821E+07      0.3567410646E+02
          4                 1           0            12    5     1       0.8565352378E+01      31    9    1      -0.6919494752E+06      0.1763656674E+07      0.2503154543E+07      0.3567410646E+02
          5                 1           0            12    5     1       0.5995746563E+01      31    9    1      -0.4855295919E+06      0.1246157328E+07      0.1763656674E+07      0.3567410646E+02
          6                 1           0            12    5     1       0.4197022522E+01      31    9    1      -0.3410369522E+06      0.8842884939E+06      0.1246157328E+07      0.3567410646E+02
          7                 1           0            12    5     1       0.2937915716E+01      31    9    1      -0.2398956264E+06      0.6313326380E+06      0.8842884939E+06      0.3567410646E+02
          8                 1           0            12    5     1       0.2056540966E+01      31    9    1      -0.1690987024E+06      0.4533868613E+06      0.6313326380E+06      0.3567410646E+02
          9                 1           0            12    5     1       0.1439578652E+01      31    9    1      -0.1195426085E+06      0.3266809018E+06      0.4533868613E+06      0.3567410646E+02
                                                   Max.-Head-Change                        Max.-Flux-Residual
  Residual-Control   Outer-Iter.   Inner-Iter.     Column Row Layer    Max.-Head-Change    Column Row Layer    Max.-Flux-Residual            L2-New               L2-Old           Solver-Max-Delh
         10                 1           0            12    5     1       0.1007705039E+01      31    9    1      -0.8485466025E+05      0.2335745485E+06      0.3266809018E+06      0.3567410646E+02
         11                 1           0            12    5     1       0.7053935153E+00      31    9    1      -0.6001469487E+05      0.1643183522E+06      0.2335745485E+06      0.3567410646E+02
         12                 1           0            12    5     1       0.4937754523E+00      31    9    1      -0.4018352251E+05      0.1149622887E+06      0.1643183522E+06      0.3567410646E+02
         13                 1           0            12    5     1       0.3456428107E+00      31   21    1       0.2689239806E+05      0.8401506334E+05      0.1149622887E+06      0.3567410646E+02
         14                 1           0            12    5     1       0.2419499634E+00      31   21    1       0.2701714061E+05      0.6673526890E+05      0.8401506334E+05      0.3567410646E+02
          0                 2           2            34    9     1       0.1483479207E+02      31   21    1       0.2710445850E+05      0.5877910352E+05      0.6673526890E+05      0.1483479207E+02
          1                 2           0            34    9     1       0.1038435427E+02      28   11    1      -0.4210812966E+06      0.5223816508E+06      0.5877910352E+05      0.1483479207E+02
          2                 2           0            34    9     1       0.7269047866E+01      28   11    1      -0.2968233495E+06      0.3655325314E+06      0.5223816508E+06      0.1483479207E+02
          3                 2           0            34    9     1       0.5088333420E+01      28   11    1      -0.2098217650E+06      0.2563647432E+06      0.3655325314E+06      0.1483479207E+02
          4                 2           0            34    9     1       0.3561833333E+01      28   11    1      -0.1489206443E+06      0.1808675807E+06      0.2563647432E+06      0.1483479207E+02
                                                   Max.-Head-Change                        Max.-Flux-Residual
  Residual-Control   Outer-Iter.   Inner-Iter.     Column Row Layer    Max.-Head-Change    Column Row Layer    Max.-Flux-Residual            L2-New               L2-Old           Solver-Max-Delh
          5                 2           0            34    9     1       0.2493283291E+01      28   11    1      -0.1062898192E+06      0.1292844570E+06      0.1808675807E+06      0.1483479207E+02
          6                 2           0            34    9     1       0.1745298274E+01      28   11    1      -0.7644555848E+05      0.9639470361E+05      0.1292844570E+06      0.1483479207E+02
          7                 2           0            34    9     1       0.1221708771E+01      28   11    1      -0.5555457960E+05      0.7714799868E+05      0.9639470361E+05      0.1483479207E+02
          8                 2           0            34    9     1       0.8551961251E+00      28   11    1      -0.4093089624E+05      0.6637379467E+05      0.7714799868E+05      0.1483479207E+02
          0                 3           2            11    6     1       0.1107895534E+02      28   11    1      -0.2958768319E+05      0.6100050214E+05      0.6637379467E+05      0.1107895534E+02
          0                 4           2            13    4     1      -0.3025408127E+03      33    9    1      -0.3882122805E+04      0.7835379967E+04      0.6100050214E+05     -0.3025408127E+03
          0                 5           2            13    4     1       0.2026573830E+03      33    9    1       0.2878434622E+04      0.3235753456E+04      0.7835379967E+04      0.2026573830E+03
          1                 5           0            13    4     1       0.1418601657E+03      12    4    1      -0.1823122058E+06      0.2010409079E+06      0.3235753456E+04      0.2026573830E+03
          2                 5           0            13    4     1       0.9930211427E+02      12    4    1      -0.1297923848E+06      0.1435932870E+06      0.2010409079E+06      0.2026573830E+03
          3                 5           0            13    4     1       0.6951147880E+02      12    4    1      -0.9302851144E+05      0.1033972903E+06      0.1435932870E+06      0.2026573830E+03
                                                   Max.-Head-Change                        Max.-Flux-Residual
  Residual-Control   Outer-Iter.   Inner-Iter.     Column Row Layer    Max.-Head-Change    Column Row Layer    Max.-Flux-Residual            L2-New               L2-Old           Solver-Max-Delh
          4                 5           0            13    4     1       0.4865803433E+02      12    4    1      -0.6729380083E+05      0.7475381208E+05      0.1033972903E+06      0.2026573830E+03
          5                 5           0            13    4     1       0.3406062345E+02      12    4    1      -0.4927950387E+05      0.5392839854E+05      0.7475381208E+05      0.2026573830E+03
          6                 5           0            13    4     1       0.2384243601E+02      12    4    1      -0.3645624539E+05      0.3923967227E+05      0.5392839854E+05      0.2026573830E+03
          7                 5           0            13    4     1       0.1668970492E+02      12    4    1      -0.2459195291E+05      0.2634567859E+05      0.3923967227E+05      0.2026573830E+03
          8                 5           0            13    4     1       0.1168279325E+02      12    4    1      -0.1628470935E+05      0.1739292007E+05      0.2634567859E+05      0.2026573830E+03
          9                 5           0            13    4     1       0.8177955134E+01      12    4    1      -0.1046854187E+05      0.1125452643E+05      0.1739292007E+05      0.2026573830E+03
         10                 5           0            13    4     1       0.5724568496E+01      12    4    1      -0.6396687119E+04      0.7206998481E+04      0.1125452643E+05      0.2026573830E+03
         11                 5           0            13    4     1       0.4007197879E+01      12    4    1      -0.3546125431E+04      0.4815566904E+04      0.7206998481E+04      0.2026573830E+03
         12                 5           0            13    4     1       0.2805038468E+01      33    9    1       0.2844322710E+04      0.3585531617E+04      0.4815566904E+04      0.2026573830E+03
          0                 6           2            13    4     1       0.1961242582E+03      33    9    1       0.2854019317E+04      0.3320492164E+04      0.3585531617E+04      0.1961242582E+03
                                                   Max.-Head-Change                        Max.-Flux-Residual
  Residual-Control   Outer-Iter.   Inner-Iter.     Column Row Layer    Max.-Head-Change    Column Row Layer    Max.-Flux-Residual            L2-New               L2-Old           Solver-Max-Delh
          0                 7           2            13    4     1       0.6449290969E+02      11    6    1      -0.6656956762E+03      0.9926806307E+03      0.3320492164E+04      0.6449290969E+02
          0                 8           2            13    4     1       0.2409065617E+02      11    6    1       0.7304845381E+03      0.7595399737E+03      0.9926806307E+03      0.2409065617E+02
          1                 8           0            13    4     1       0.1686345903E+02      33    9    1      -0.3834533500E+04      0.3880309572E+04      0.7595399737E+03      0.2409065617E+02
          2                 8           0            13    4     1       0.1180442112E+02      33    9    1      -0.3787722781E+04      0.3811934382E+04      0.3880309572E+04      0.2409065617E+02
          3                 8           0            13    4     1       0.8263094643E+01      33    9    1      -0.3754966387E+04      0.3791296795E+04      0.3811934382E+04      0.2409065617E+02
          0                 9           2            13    4     1       0.1900910367E+02      11    6    1       0.5791636877E+03      0.6000806644E+03      0.3791296795E+04      0.1900910367E+02
          1                 9           0            13    4     1       0.1330637234E+02      33    9    1      -0.3846989251E+04      0.3902267583E+04      0.6000806644E+03      0.1900910367E+02
          2                 9           0            13    4     1       0.9314460479E+01      33    9    1      -0.3812771493E+04      0.3852038796E+04      0.3902267583E+04      0.1900910367E+02
          3                 9           0            13    4     1       0.6520122224E+01      33    9    1      -0.3788546909E+04      0.3811207599E+04      0.3852038796E+04      0.1900910367E+02
          4                 9           0            13    4     1       0.4564085479E+01      33    9    1      -0.3771592679E+04      0.3800448794E+04      0.3811207599E+04      0.1900910367E+02
                                                   Max.-Head-Change                        Max.-Flux-Residual
  Residual-Control   Outer-Iter.   Inner-Iter.     Column Row Layer    Max.-Head-Change    Column Row Layer    Max.-Flux-Residual            L2-New               L2-Old           Solver-Max-Delh
          5                 9           0            13    4     1       0.3194859781E+01      33    9    1      -0.3759726179E+04      0.3793381387E+04      0.3800448794E+04      0.1900910367E+02
          6                 9           0            13    4     1       0.2236401809E+01      33    9    1      -0.2799558501E+04      0.2849273619E+04      0.3793381387E+04      0.1900910367E+02
          0                10           2            13    4     1       0.1763771043E+02      11    6    1       0.5380281763E+03      0.5569759901E+03      0.2849273619E+04      0.1763771043E+02
          1                10           0            13    4     1       0.1234639709E+02      33    9    1      -0.3849935992E+04      0.3907789309E+04      0.5569759901E+03      0.1763771043E+02
          2                10           0            13    4     1       0.8642477816E+01      33    9    1      -0.3819130435E+04      0.3861780573E+04      0.3907789309E+04      0.1763771043E+02
          3                10           0            13    4     1       0.6049734368E+01      33    9    1      -0.3797068441E+04      0.3816587971E+04      0.3861780573E+04      0.1763771043E+02
          4                10           0            13    4     1       0.4234813985E+01      33    9    1      -0.3781627516E+04      0.3806471497E+04      0.3816587971E+04      0.1763771043E+02
          5                10           0            13    4     1       0.2964369739E+01      33    9    1      -0.3770820081E+04      0.3799787448E+04      0.3806471497E+04      0.1763771043E+02
          6                10           0            13    4     1       0.2075058782E+01      33    9    1      -0.3763255469E+04      0.3795304007E+04      0.3799787448E+04      0.1763771043E+02
          7                10           0            13    4     1       0.1452541123E+01      33    9    1      -0.3757960532E+04      0.3792261658E+04      0.3795304007E+04      0.1763771043E+02
                                                   Max.-Head-Change                        Max.-Flux-Residual
  Residual-Control   Outer-Iter.   Inner-Iter.     Column Row Layer    Max.-Head-Change    Column Row Layer    Max.-Flux-Residual            L2-New               L2-Old           Solver-Max-Delh
          8                10           0            13    4     1       0.1016778769E+01      33    9    1      -0.3754254219E+04      0.3790179190E+04      0.3792261658E+04      0.1763771043E+02
          9                10           0            13    4     1       0.7117451259E+00      33    9    1      -0.2947286809E+04      0.2994353532E+04      0.3790179190E+04      0.1763771043E+02
         10                10           0            13    4     1       0.4982215797E+00      33    9    1      -0.1827368339E+04      0.1903959110E+04      0.2994353532E+04      0.1763771043E+02
         11                10           0            13    4     1       0.3487550998E+00      33    9    1      -0.1043603141E+04      0.1174404901E+04      0.1903959110E+04      0.1763771043E+02
         12                10           0            13    4     1       0.2441285657E+00      11    6    1       0.5316062449E+03      0.7336571131E+03      0.1174404901E+04      0.1763771043E+02
          0                11           2            13    4     1       0.1748829242E+02      11    6    1       0.5335328509E+03      0.5546782221E+03      0.7336571131E+03      0.1748829242E+02
          1                11           0            13    4     1       0.1224180449E+02      11    6    1      -0.6701028476E+03      0.6723038074E+03      0.5546782221E+03      0.1748829242E+02
          0                12           2            13    4     1       0.1014144696E+02      11    6    1      -0.5719746841E+03      0.5776800043E+03      0.6723038074E+03      0.1014144696E+02
          0                13           2            11    6     1       0.8579343630E+01      11    6    1       0.6104836472E+03      0.6113177949E+03      0.5776800043E+03      0.8579343630E+01
          1                13           0            11    6     1       0.6005540439E+01      13    4    1      -0.1010611398E+04      0.1151560447E+04      0.6113177949E+03      0.8579343630E+01
                                                   Max.-Head-Change                        Max.-Flux-Residual
  Residual-Control   Outer-Iter.   Inner-Iter.     Column Row Layer    Max.-Head-Change    Column Row Layer    Max.-Flux-Residual            L2-New               L2-Old           Solver-Max-Delh
          0                14           2            11    6     1       0.5787767761E+01      11    6    1       0.4124627550E+03      0.4127640880E+03      0.1151560447E+04      0.5787767761E+01
          1                14           0            11    6     1       0.4051437364E+01      13    4    1      -0.1471205609E+04      0.1612826329E+04      0.4127640880E+03      0.5787767761E+01
          2                14           0            11    6     1       0.2836006106E+01      13    4    1      -0.1467989357E+04      0.1586676651E+04      0.1612826329E+04      0.5787767761E+01
          3                14           0            11    6     1       0.1985204241E+01      11    6    1      -0.5607689046E+03      0.6526525659E+03      0.1586676651E+04      0.5787767761E+01
          0                15           2            11    6     1       0.4866051564E+01      11    6    1       0.3469381134E+03      0.3472245057E+03      0.6526525659E+03      0.4866051564E+01
          1                15           0            11    6     1       0.3406236037E+01      13    4    1      -0.1472669040E+04      0.1625592556E+04      0.3472245057E+03      0.4866051564E+01
          2                15           0            11    6     1       0.2384365185E+01      13    4    1      -0.1470116842E+04      0.1606418456E+04      0.1625592556E+04      0.4866051564E+01
          3                15           0            11    6     1       0.1669055601E+01      13    4    1      -0.1468330403E+04      0.1591112245E+04      0.1606418456E+04      0.4866051564E+01
          4                15           0            11    6     1       0.1168338901E+01      13    4    1      -0.1467079944E+04      0.1580765928E+04      0.1591112245E+04      0.4866051564E+01
          5                15           0            11    6     1       0.8178372167E+00      13    4    1      -0.1346957809E+04      0.1463247163E+04      0.1580765928E+04      0.4866051564E+01
                                                   Max.-Head-Change                        Max.-Flux-Residual
  Residual-Control   Outer-Iter.   Inner-Iter.     Column Row Layer    Max.-Head-Change    Column Row Layer    Max.-Flux-Residual            L2-New               L2-Old           Solver-Max-Delh
          6                15           0            11    6     1       0.5724860419E+00      11    6    1      -0.5596527837E+03      0.5600059542E+03      0.1463247163E+04      0.4866051564E+01
          7                15           0            11    6     1       0.4007402225E+00      11    6    1      -0.5513358754E+03      0.5515088220E+03      0.5600059542E+03      0.4866051564E+01
          8                15           0            11    6     1       0.2805181510E+00      11    6    1      -0.5455142820E+03      0.5456910137E+03      0.5515088220E+03      0.4866051564E+01
          0                16           2            13    4     1       0.1773344356E+01      11    6    1       0.1236771907E+03      0.1244609777E+03      0.5456910137E+03      0.1773344356E+01
          1                16           0            13    4     1       0.1241341028E+01      13    4    1      -0.1472864398E+04      0.1474299049E+04      0.1244609777E+03      0.1773344356E+01
          2                16           0            13    4     1       0.8689387046E+00      13    4    1      -0.1470400709E+04      0.1472728511E+04      0.1474299049E+04      0.1773344356E+01
          3                16           0            13    4     1       0.6082570829E+00      13    4    1      -0.1468676219E+04      0.1471758889E+04      0.1472728511E+04      0.1773344356E+01
          4                16           0            13    4     1       0.4257799508E+00      13    4    1      -0.1467469122E+04      0.1471143867E+04      0.1471758889E+04      0.1773344356E+01
          5                16           0            13    4     1       0.2980459605E+00      13    4    1      -0.1466624175E+04      0.1470744612E+04      0.1471143867E+04      0.1773344356E+01
          6                16           0            13    4     1       0.2086321688E+00      13    4    1      -0.9735109783E+03      0.9801921822E+03      0.1470744612E+04      0.1773344356E+01
                                                   Max.-Head-Change                        Max.-Flux-Residual
  Residual-Control   Outer-Iter.   Inner-Iter.     Column Row Layer    Max.-Head-Change    Column Row Layer    Max.-Flux-Residual            L2-New               L2-Old           Solver-Max-Delh
          7                16           0            13    4     1       0.1460425156E+00      11    6    1       0.1167336273E+03      0.1388096987E+03      0.9801921822E+03      0.1773344356E+01
          0                17           2            13    4     1       0.1685473044E+01      11    6    1       0.1188166974E+03      0.1195595266E+03      0.1388096987E+03      0.1685473044E+01
          1                17           0            13    4     1       0.1179831110E+01      13    4    1      -0.1473133797E+04      0.1474458179E+04      0.1195595266E+03      0.1685473044E+01
          2                17           0            13    4     1       0.8258817633E+00      13    4    1      -0.1470792167E+04      0.1472940544E+04      0.1474458179E+04      0.1685473044E+01
          3                17           0            13    4     1       0.5781172244E+00      13    4    1      -0.1469153109E+04      0.1471997855E+04      0.1472940544E+04      0.1685473044E+01
          4                17           0            13    4     1       0.4046820502E+00      13    4    1      -0.1468005809E+04      0.1471396722E+04      0.1471997855E+04      0.1685473044E+01
          5                17           0            13    4     1       0.2832774303E+00      13    4    1      -0.1467202720E+04      0.1471004754E+04      0.1471396722E+04      0.1685473044E+01
          6                17           0            13    4     1       0.1982941979E+00      13    4    1      -0.1466640567E+04      0.1470744512E+04      0.1471004754E+04      0.1685473044E+01
          7                17           0            13    4     1       0.1388059361E+00      13    4    1      -0.1439102060E+04      0.1443505368E+04      0.1470744512E+04      0.1685473044E+01
          8                17           0            13    4     1       0.9716415364E-01      13    4    1      -0.8407810169E+03      0.8485599255E+03      0.1443505368E+04      0.1685473044E+01
                                                   Max.-Head-Change                        Max.-Flux-Residual
  Residual-Control   Outer-Iter.   Inner-Iter.     Column Row Layer    Max.-Head-Change    Column Row Layer    Max.-Flux-Residual            L2-New               L2-Old           Solver-Max-Delh
          9                17           0            13    4     1       0.6801490639E-01      13    4    1      -0.4220110417E+03      0.4376715622E+03      0.8485599255E+03      0.1685473044E+01
         10                17           0            13    4     1       0.4761043366E-01      13    4    1      -0.1288988906E+03      0.1740897349E+03      0.4376715622E+03      0.1685473044E+01
          0                18           2            13    4     1       0.1656841958E+01      11    6    1       0.1172150339E+03      0.1179446062E+03      0.1740897349E+03      0.1656841958E+01
          1                18           0            13    4     1       0.1159789351E+01      13    4    1      -0.1473221693E+04      0.1474510682E+04      0.1179446062E+03      0.1656841958E+01
          2                18           0            13    4     1       0.8118525318E+00      13    4    1      -0.1470919834E+04      0.1473010650E+04      0.1474510682E+04      0.1656841958E+01
          3                18           0            13    4     1       0.5682967626E+00      13    4    1      -0.1469308613E+04      0.1472077049E+04      0.1473010650E+04      0.1656841958E+01
          4                18           0            13    4     1       0.3978077270E+00      13    4    1      -0.1468180798E+04      0.1471480690E+04      0.1472077049E+04      0.1656841958E+01
          5                18           0            13    4     1       0.2784654042E+00      13    4    1      -0.1467391346E+04      0.1471091283E+04      0.1471480690E+04      0.1656841958E+01
          6                18           0            13    4     1       0.1949257796E+00      13    4    1      -0.1466838740E+04      0.1470832452E+04      0.1471091283E+04      0.1656841958E+01
          7                18           0            13    4     1       0.1364480434E+00      13    4    1      -0.1466451920E+04      0.1470658013E+04      0.1470832452E+04      0.1656841958E+01
                                                   Max.-Head-Change                        Max.-Flux-Residual
  Residual-Control   Outer-Iter.   Inner-Iter.     Column Row Layer    Max.-Head-Change    Column Row Layer    Max.-Flux-Residual            L2-New               L2-Old           Solver-Max-Delh
          8                18           0            13    4     1       0.9551362876E-01      13    4    1      -0.1295913652E+04      0.1300841072E+04      0.1470658013E+04      0.1656841958E+01
          9                18           0            13    4     1       0.6685953899E-01      13    4    1      -0.8842087706E+03      0.8915888891E+03      0.1300841072E+04      0.1656841958E+01
         10                18           0            13    4     1       0.4680167650E-01      13    4    1      -0.5960412817E+03      0.6071176677E+03      0.8915888891E+03      0.1656841958E+01
         11                18           0            13    4     1       0.3276117299E-01      13    4    1      -0.3943367451E+03      0.4110775338E+03      0.6071176677E+03      0.1656841958E+01
         12                18           0            13    4     1       0.2293282070E-01      13    4    1      -0.2531497959E+03      0.2787088789E+03      0.4110775338E+03      0.1656841958E+01
         13                18           0            13    4     1       0.1605297422E-01      13    4    1      -0.1543219830E+03      0.1936154126E+03      0.2787088789E+03      0.1656841958E+01
         14                18           0            13    4     1       0.1123708176E-01      11    6    1       0.1166730577E+03      0.1448304489E+03      0.1936154126E+03      0.1656841958E+01
          0                19           2            11    6     1       0.5550763935E-02      11    6    1       0.1168356506E+03      0.1229354561E+03      0.1448304489E+03      0.5550763935E-02

    ------------------------------------------------
       NWT REQUIRED           19 OUTER ITERATIONS 
       AND A TOTAL OF         38 INNER ITERATIONS.
    ------------------------------------------------

 OUTPUT CONTROL FOR STRESS PERIOD    1   TIME STEP    1
    SAVE HEAD FOR ALL LAYERS
    SAVE DRAWDOWN FOR ALL LAYERS
    SAVE BUDGET
    PRINT BUDGET
 UBDSV1 SAVING "         STORAGE" ON UNIT   9 AT TIME STEP  1, STRESS PERIOD   1
 UBDSV2 SAVING "   CONSTANT HEAD" ON UNIT   9 AT TIME STEP  1, STRESS PERIOD   1
 UBDSV1 SAVING "FLOW RIGHT FACE " ON UNIT   9 AT TIME STEP  1, STRESS PERIOD   1
 UBDSV1 SAVING "FLOW FRONT FACE " ON UNIT   9 AT TIME STEP  1, STRESS PERIOD   1
 UBDSV4 SAVING "   RIVER LEAKAGE" ON UNIT   9 AT TIME STEP  1, STRESS PERIOD   1
 UBDSV3 SAVING "        RECHARGE" ON UNIT   9 AT TIME STEP  1, STRESS PERIOD   1

 HEAD WILL BE SAVED ON UNIT 5037 AT END OF TIME STEP    1, STRESS PERIOD    1

 DRAWDOWN WILL BE SAVED ON UNIT   38 AT END OF TIME STEP    1, STRESS PERIOD    1
1
  VOLUMETRIC BUDGET FOR ENTIRE MODEL AT END OF TIME STEP    1, STRESS PERIOD   1
  ------------------------------------------------------------------------------

     CUMULATIVE VOLUMES      L**3       RATES FOR THIS TIME STEP      L**3/T
     ------------------                 ------------------------

           IN:                                      IN:
           ---                                      ---
             STORAGE =      101850.2422               STORAGE =      101850.2422
       CONSTANT HEAD =           0.0000         CONSTANT HEAD =           0.0000
       RIVER LEAKAGE =       29940.7363         RIVER LEAKAGE =       29940.7363
            RECHARGE =           0.0000              RECHARGE =           0.0000

            TOTAL IN =      131790.9844              TOTAL IN =      131790.9844

          OUT:                                     OUT:
          ----                                     ----
             STORAGE =      130962.6172               STORAGE =      130962.6172
       CONSTANT HEAD =           0.0000         CONSTANT HEAD =           0.0000
       RIVER LEAKAGE =         788.9896         RIVER LEAKAGE =         788.9896
            RECHARGE =           0.0000              RECHARGE =           0.0000

           TOTAL OUT =      131751.6094             TOTAL OUT =      131751.6094

            IN - OUT =          39.3750              IN - OUT =          39.3750

 PERCENT DISCREPANCY =           0.03     PERCENT DISCREPANCY =           0.03






         TIME SUMMARY AT END OF TIME STEP    1 IN STRESS PERIOD    1
                    SECONDS     MINUTES      HOURS       DAYS        YEARS
                    -----------------------------------------------------------
   TIME STEP LENGTH  86400.      1440.0      24.000      1.0000     2.73785E-03
 STRESS PERIOD TIME  86400.      1440.0      24.000      1.0000     2.73785E-03
         TOTAL TIME  86400.      1440.0      24.000      1.0000     2.73785E-03
1
 
 SOLVING FOR HEAD 
                                                   Max.-Head-Change                        Max.-Flux-Residual
  Residual-Control   Outer-Iter.   Inner-Iter.     Column Row Layer    Max.-Head-Change    Column Row Layer    Max.-Flux-Residual            L2-New               L2-Old           Solver-Max-Delh
          0                 1           2            31   21     1       0.2097735137E+00      31   21    1       0.7701931670E+04      0.1948951524E+05      0.6218759301E+02      0.2097735137E+00
          0                 2           2            39   15     1      -0.1293437907E+00      39   15    1      -0.9544317719E+04      0.1642531700E+05      0.1948951524E+05     -0.1293437907E+00
          0                 3           2            39   15     1      -0.6470170528E-02      39   15    1      -0.4774103119E+03      0.8257852189E+03      0.1642531700E+05     -0.6470170528E-02

    ------------------------------------------------
       NWT REQUIRED            3 OUTER ITERATIONS 
       AND A TOTAL OF          6 INNER ITERATIONS.
    ------------------------------------------------

 OUTPUT CONTROL FOR STRESS PERIOD    1   TIME STEP    2
    SAVE HEAD FOR ALL LAYERS
    SAVE DRAWDOWN FOR ALL LAYERS
    SAVE BUDGET
    PRINT BUDGET
 UBDSV1 SAVING "         STORAGE" ON UNIT   9 AT TIME STEP  2, STRESS PERIOD   1
 UBDSV2 SAVING "   CONSTANT HEAD" ON UNIT   9 AT TIME STEP  2, STRESS PERIOD   1
 UBDSV1 SAVING "FLOW RIGHT FACE " ON UNIT   9 AT TIME STEP  2, STRESS PERIOD   1
 UBDSV1 SAVING "FLOW FRONT FACE " ON UNIT   9 AT TIME STEP  2, STRESS PERIOD   1
 UBDSV4 SAVING "   RIVER LEAKAGE" ON UNIT   9 AT TIME STEP  2, STRESS PERIOD   1
 UBDSV3 SAVING "        RECHARGE" ON UNIT   9 AT TIME STEP  2, STRESS PERIOD   1

 HEAD WILL BE SAVED ON UNIT 5037 AT END OF TIME STEP    2, STRESS PERIOD    1

 DRAWDOWN WILL BE SAVED ON UNIT   38 AT END OF TIME STEP    2, STRESS PERIOD    1
1
  VOLUMETRIC BUDGET FOR ENTIRE MODEL AT END OF TIME STEP    2, STRESS PERIOD   1
  ------------------------------------------------------------------------------

     CUMULATIVE VOLUMES      L**3       RATES FOR THIS TIME STEP      L**3/T
     ------------------                 ------------------------

           IN:                                      IN:
           ---                                      ---
             STORAGE =      198926.4688               STORAGE =       97076.2344
       CONSTANT HEAD =           0.0000         CONSTANT HEAD =           0.0000
       RIVER LEAKAGE =       77021.0078         RIVER LEAKAGE =       47080.2695
            RECHARGE =           0.0000              RECHARGE =           0.0000

            TOTAL IN =      275947.4688              TOTAL IN =      144156.5000

          OUT:                                     OUT:
          ----                                     ----
             STORAGE =      270000.7500               STORAGE =      139038.1250
       CONSTANT HEAD =           0.0000         CONSTANT HEAD =           0.0000
       RIVER LEAKAGE =        6127.2266         RIVER LEAKAGE =        5338.2368
            RECHARGE =           0.0000              RECHARGE =           0.0000

           TOTAL OUT =      276127.9688             TOTAL OUT =      144376.3594

            IN - OUT =        -180.5000              IN - OUT =        -219.8594

 PERCENT DISCREPANCY =          -0.07     PERCENT DISCREPANCY =          -0.15






         TIME SUMMARY AT END OF TIME STEP    2 IN STRESS PERIOD    1
                    SECONDS     MINUTES      HOURS       DAYS        YEARS
                    -----------------------------------------------------------
   TIME STEP LENGTH  86400.      1440.0      24.000      1.0000     2.73785E-03
 STRESS PERIOD TIME 1.72800E+05  2880.0      48.000      2.0000     5.47570E-03
         TOTAL TIME 1.72800E+05  2880.0      48.000      2.0000     5.47570E-03
1
 
 SOLVING FOR HEAD 
                                                   Max.-Head-Change                        Max.-Flux-Residual
  Residual-Control   Outer-Iter.   Inner-Iter.     Column Row Layer    Max.-Head-Change    Column Row Layer    Max.-Flux-Residual            L2-New               L2-Old           Solver-Max-Delh
          0                 1           2            14   14     1      -0.1706563956E+00      31   21    1       0.1955853900E+04      0.1051205487E+05      0.4128160036E+02     -0.1706563956E+00
          0                 2           2            11    6     1       0.2142900808E+01      26    5    1      -0.1045982405E+04      0.2739139090E+04      0.1051205487E+05      0.2142900808E+01
          0                 3           2            11    6     1      -0.1858019126E+00      26    5    1      -0.5230162097E+02      0.1388017646E+03      0.2739139090E+04     -0.1858019126E+00
          0                 4           2            11    6     1      -0.9286525880E-02      26    5    1      -0.2614563029E+01      0.6938718150E+01      0.1388017646E+03     -0.9286525880E-02

    ------------------------------------------------
       NWT REQUIRED            4 OUTER ITERATIONS 
       AND A TOTAL OF          8 INNER ITERATIONS.
    ------------------------------------------------

 OUTPUT CONTROL FOR STRESS PERIOD    1   TIME STEP    3
    SAVE HEAD FOR ALL LAYERS
    SAVE DRAWDOWN FOR ALL LAYERS
    SAVE BUDGET
    PRINT BUDGET
 UBDSV1 SAVING "         STORAGE" ON UNIT   9 AT TIME STEP  3, STRESS PERIOD   1
 UBDSV2 SAVING "   CONSTANT HEAD" ON UNIT   9 AT TIME STEP  3, STRESS PERIOD   1
 UBDSV1 SAVING "FLOW RIGHT FACE " ON UNIT   9 AT TIME STEP  3, STRESS PERIOD   1
 UBDSV1 SAVING "FLOW FRONT FACE " ON UNIT   9 AT TIME STEP  3, STRESS PERIOD   1
 UBDSV4 SAVING "   RIVER LEAKAGE" ON UNIT   9 AT TIME STEP  3, STRESS PERIOD   1
 UBDSV3 SAVING "        RECHARGE" ON UNIT   9 AT TIME STEP  3, STRESS PERIOD   1

 HEAD WILL BE SAVED ON UNIT 5037 AT END OF TIME STEP    3, STRESS PERIOD    1

 DRAWDOWN WILL BE SAVED ON UNIT   38 AT END OF TIME STEP    3, STRESS PERIOD    1
1
  VOLUMETRIC BUDGET FOR ENTIRE MODEL AT END OF TIME STEP    3, STRESS PERIOD   1
  ------------------------------------------------------------------------------

     CUMULATIVE VOLUMES      L**3       RATES FOR THIS TIME STEP      L**3/T
     ------------------                 ------------------------

           IN:                                      IN:
           ---                                      ---
             STORAGE =      298461.6250               STORAGE =       99535.1641
       CONSTANT HEAD =           0.0000         CONSTANT HEAD =           0.0000
       RIVER LEAKAGE =       78576.9844         RIVER LEAKAGE =        1555.9774
            RECHARGE =           0.0000              RECHARGE =           0.0000

            TOTAL IN =      377038.6250              TOTAL IN =      101091.1406

          OUT:                                     OUT:
          ----                                     ----
             STORAGE =      347477.8750               STORAGE =       77477.1172
       CONSTANT HEAD =           0.0000         CONSTANT HEAD =           0.0000
       RIVER LEAKAGE =       29742.2324         RIVER LEAKAGE =       23615.0059
            RECHARGE =           0.0000              RECHARGE =           0.0000

           TOTAL OUT =      377220.0938             TOTAL OUT =      101092.1250

            IN - OUT =        -181.4688              IN - OUT =          -0.9844

 PERCENT DISCREPANCY =          -0.05     PERCENT DISCREPANCY =          -0.00






         TIME SUMMARY AT END OF TIME STEP    3 IN STRESS PERIOD    1
                    SECONDS     MINUTES      HOURS       DAYS        YEARS
                    -----------------------------------------------------------
   TIME STEP LENGTH  86400.      1440.0      24.000      1.0000     2.73785E-03
 STRESS PERIOD TIME 2.59200E+05  4320.0      72.000      3.0000     8.21355E-03
         TOTAL TIME 2.59200E+05  4320.0      72.000      3.0000     8.21355E-03
1
 
 SOLVING FOR HEAD 
                                                   Max.-Head-Change                        Max.-Flux-Residual
  Residual-Control   Outer-Iter.   Inner-Iter.     Column Row Layer    Max.-Head-Change    Column Row Layer    Max.-Flux-Residual            L2-New               L2-Old           Solver-Max-Delh
          0                 1           2            11    6     1       0.8711736627E+01      14   14    1      -0.1603465606E+04      0.1065981556E+05      0.6938718150E+01      0.8711736627E+01
          1                 1           0            11    6     1       0.6098215535E+01      34   12    1      -0.4617926794E+04      0.1201237057E+05      0.1065981556E+05      0.8711736627E+01
          0                 2           2            11    6     1       0.5068072715E+01      34   12    1      -0.2953514790E+04      0.7304384023E+04      0.1201237057E+05      0.5068072715E+01
          0                 3           2            11    6     1      -0.4746134209E+00      35   12    1      -0.3076474351E+03      0.6357089216E+03      0.7304384023E+04     -0.4746134209E+00
          0                 4           2            11    6     1       0.1095680457E-01      35   12    1      -0.1538257505E+02      0.3309614818E+02      0.6357089216E+03      0.1095680457E-01

    ------------------------------------------------
       NWT REQUIRED            4 OUTER ITERATIONS 
       AND A TOTAL OF          8 INNER ITERATIONS.
    ------------------------------------------------

 OUTPUT CONTROL FOR STRESS PERIOD    1   TIME STEP    4
    SAVE HEAD FOR ALL LAYERS
    SAVE DRAWDOWN FOR ALL LAYERS
    SAVE BUDGET
    PRINT BUDGET
 UBDSV1 SAVING "         STORAGE" ON UNIT   9 AT TIME STEP  4, STRESS PERIOD   1
 UBDSV2 SAVING "   CONSTANT HEAD" ON UNIT   9 AT TIME STEP  4, STRESS PERIOD   1
 UBDSV1 SAVING "FLOW RIGHT FACE " ON UNIT   9 AT TIME STEP  4, STRESS PERIOD   1
 UBDSV1 SAVING "FLOW FRONT FACE " ON UNIT   9 AT TIME STEP  4, STRESS PERIOD   1
 UBDSV4 SAVING "   RIVER LEAKAGE" ON UNIT   9 AT TIME STEP  4, STRESS PERIOD   1
 UBDSV3 SAVING "        RECHARGE" ON UNIT   9 AT TIME STEP  4, STRESS PERIOD   1

 HEAD WILL BE SAVED ON UNIT 5037 AT END OF TIME STEP    4, STRESS PERIOD    1

 DRAWDOWN WILL BE SAVED ON UNIT   38 AT END OF TIME STEP    4, STRESS PERIOD    1
1
  VOLUMETRIC BUDGET FOR ENTIRE MODEL AT END OF TIME STEP    4, STRESS PERIOD   1
  ------------------------------------------------------------------------------

     CUMULATIVE VOLUMES      L**3       RATES FOR THIS TIME STEP      L**3/T
     ------------------                 ------------------------

           IN:                                      IN:
           ---                                      ---
             STORAGE =      393057.4062               STORAGE =       94595.7812
       CONSTANT HEAD =           0.0000         CONSTANT HEAD =           0.0000
       RIVER LEAKAGE =       95403.2188         RIVER LEAKAGE =       16826.2383
            RECHARGE =           0.0000              RECHARGE =           0.0000

            TOTAL IN =      488460.6250              TOTAL IN =      111422.0156

          OUT:                                     OUT:
          ----                                     ----
             STORAGE =      435779.7188               STORAGE =       88301.8438
       CONSTANT HEAD =           0.0000         CONSTANT HEAD =           0.0000
       RIVER LEAKAGE =       52870.3359         RIVER LEAKAGE =       23128.1035
            RECHARGE =           0.0000              RECHARGE =           0.0000

           TOTAL OUT =      488650.0625             TOTAL OUT =      111429.9453

            IN - OUT =        -189.4375              IN - OUT =          -7.9297

 PERCENT DISCREPANCY =          -0.04     PERCENT DISCREPANCY =          -0.01






         TIME SUMMARY AT END OF TIME STEP    4 IN STRESS PERIOD    1
                    SECONDS     MINUTES      HOURS       DAYS        YEARS
                    -----------------------------------------------------------
   TIME STEP LENGTH  86400.      1440.0      24.000      1.0000     2.73785E-03
 STRESS PERIOD TIME 3.45600E+05  5760.0      96.000      4.0000     1.09514E-02
         TOTAL TIME 3.45600E+05  5760.0      96.000      4.0000     1.09514E-02
1
 
 SOLVING FOR HEAD 
                                                   Max.-Head-Change                        Max.-Flux-Residual
  Residual-Control   Outer-Iter.   Inner-Iter.     Column Row Layer    Max.-Head-Change    Column Row Layer    Max.-Flux-Residual            L2-New               L2-Old           Solver-Max-Delh
          0                 1           2            11    6     1       0.4509187384E+00      14   14    1      -0.1565452551E+04      0.9451834805E+04      0.3309614818E+02      0.4509187384E+00
          0                 2           2            11    6     1       0.4383008762E+00      32   10    1      -0.1352872043E+04      0.3276379718E+04      0.9451834805E+04      0.4383008762E+00
          0                 3           2            11    6     1      -0.3786167959E-01      32   10    1      -0.6765513898E+02      0.1638434691E+03      0.3276379718E+04     -0.3786167959E-01

    ------------------------------------------------
       NWT REQUIRED            3 OUTER ITERATIONS 
       AND A TOTAL OF          6 INNER ITERATIONS.
    ------------------------------------------------

 OUTPUT CONTROL FOR STRESS PERIOD    1   TIME STEP    5
    SAVE HEAD FOR ALL LAYERS
    SAVE DRAWDOWN FOR ALL LAYERS
    SAVE BUDGET
    PRINT BUDGET
 UBDSV1 SAVING "         STORAGE" ON UNIT   9 AT TIME STEP  5, STRESS PERIOD   1
 UBDSV2 SAVING "   CONSTANT HEAD" ON UNIT   9 AT TIME STEP  5, STRESS PERIOD   1
 UBDSV1 SAVING "FLOW RIGHT FACE " ON UNIT   9 AT TIME STEP  5, STRESS PERIOD   1
 UBDSV1 SAVING "FLOW FRONT FACE " ON UNIT   9 AT TIME STEP  5, STRESS PERIOD   1
 UBDSV4 SAVING "   RIVER LEAKAGE" ON UNIT   9 AT TIME STEP  5, STRESS PERIOD   1
 UBDSV3 SAVING "        RECHARGE" ON UNIT   9 AT TIME STEP  5, STRESS PERIOD   1

 HEAD WILL BE SAVED ON UNIT 5037 AT END OF TIME STEP    5, STRESS PERIOD    1

 DRAWDOWN WILL BE SAVED ON UNIT   38 AT END OF TIME STEP    5, STRESS PERIOD    1
1
  VOLUMETRIC BUDGET FOR ENTIRE MODEL AT END OF TIME STEP    5, STRESS PERIOD   1
  ------------------------------------------------------------------------------

     CUMULATIVE VOLUMES      L**3       RATES FOR THIS TIME STEP      L**3/T
     ------------------                 ------------------------

           IN:                                      IN:
           ---                                      ---
             STORAGE =      486664.6562               STORAGE =       93607.2578
       CONSTANT HEAD =           0.0000         CONSTANT HEAD =           0.0000
       RIVER LEAKAGE =      105259.2344         RIVER LEAKAGE =        9856.0186
            RECHARGE =           0.0000              RECHARGE =           0.0000

            TOTAL IN =      591923.8750              TOTAL IN =      103463.2734

          OUT:                                     OUT:
          ----                                     ----
             STORAGE =      507813.1562               STORAGE =       72033.4453
       CONSTANT HEAD =           0.0000         CONSTANT HEAD =           0.0000
       RIVER LEAKAGE =       84324.5938         RIVER LEAKAGE =       31454.2559
            RECHARGE =           0.0000              RECHARGE =           0.0000

           TOTAL OUT =      592137.7500             TOTAL OUT =      103487.7031

            IN - OUT =        -213.8750              IN - OUT =         -24.4297

 PERCENT DISCREPANCY =          -0.04     PERCENT DISCREPANCY =          -0.02






         TIME SUMMARY AT END OF TIME STEP    5 IN STRESS PERIOD    1
                    SECONDS     MINUTES      HOURS       DAYS        YEARS
                    -----------------------------------------------------------
   TIME STEP LENGTH  86400.      1440.0      24.000      1.0000     2.73785E-03
 STRESS PERIOD TIME 4.32000E+05  7200.0      120.00      5.0000     1.36893E-02
         TOTAL TIME 4.32000E+05  7200.0      120.00      5.0000     1.36893E-02
1
 
 SOLVING FOR HEAD 
                                                   Max.-Head-Change                        Max.-Flux-Residual
  Residual-Control   Outer-Iter.   Inner-Iter.     Column Row Layer    Max.-Head-Change    Column Row Layer    Max.-Flux-Residual            L2-New               L2-Old           Solver-Max-Delh
          0                 1           2            14   14     1      -0.1589588430E+00      14   14    1      -0.1528626576E+04      0.9094471163E+04      0.8331130743E+01     -0.1589588430E+00
          0                 2           2            12    4     1      -0.2553778841E-01      12    4    1      -0.1076328463E+04      0.2335327705E+04      0.9094471163E+04     -0.2553778841E-01
          0                 3           2            12    4     1      -0.1277108346E-02      12    4    1      -0.5382425616E+02      0.1167761141E+03      0.2335327705E+04     -0.1277108346E-02

    ------------------------------------------------
       NWT REQUIRED            3 OUTER ITERATIONS 
       AND A TOTAL OF          6 INNER ITERATIONS.
    ------------------------------------------------

 OUTPUT CONTROL FOR STRESS PERIOD    1   TIME STEP    6
    SAVE HEAD FOR ALL LAYERS
    SAVE DRAWDOWN FOR ALL LAYERS
    SAVE BUDGET
    PRINT BUDGET
 UBDSV1 SAVING "         STORAGE" ON UNIT   9 AT TIME STEP  6, STRESS PERIOD   1
 UBDSV2 SAVING "   CONSTANT HEAD" ON UNIT   9 AT TIME STEP  6, STRESS PERIOD   1
 UBDSV1 SAVING "FLOW RIGHT FACE " ON UNIT   9 AT TIME STEP  6, STRESS PERIOD   1
 UBDSV1 SAVING "FLOW FRONT FACE " ON UNIT   9 AT TIME STEP  6, STRESS PERIOD   1
 UBDSV4 SAVING "   RIVER LEAKAGE" ON UNIT   9 AT TIME STEP  6, STRESS PERIOD   1
 UBDSV3 SAVING "        RECHARGE" ON UNIT   9 AT TIME STEP  6, STRESS PERIOD   1

 HEAD WILL BE SAVED ON UNIT 5037 AT END OF TIME STEP    6, STRESS PERIOD    1

 DRAWDOWN WILL BE SAVED ON UNIT   38 AT END OF TIME STEP    6, STRESS PERIOD    1
1
  VOLUMETRIC BUDGET FOR ENTIRE MODEL AT END OF TIME STEP    6, STRESS PERIOD   1
  ------------------------------------------------------------------------------

     CUMULATIVE VOLUMES      L**3       RATES FOR THIS TIME STEP      L**3/T
     ------------------                 ------------------------

           IN:                                      IN:
           ---                                      ---
             STORAGE =      579814.1250               STORAGE =       93149.4688
       CONSTANT HEAD =           0.0000         CONSTANT HEAD =           0.0000
       RIVER LEAKAGE =      111945.3047         RIVER LEAKAGE =        6686.0674
            RECHARGE =           0.0000              RECHARGE =           0.0000

            TOTAL IN =      691759.4375              TOTAL IN =       99835.5391

          OUT:                                     OUT:
          ----                                     ----
             STORAGE =      572482.3750               STORAGE =       64669.2109
       CONSTANT HEAD =           0.0000         CONSTANT HEAD =           0.0000
       RIVER LEAKAGE =      119497.9766         RIVER LEAKAGE =       35173.3828
            RECHARGE =           0.0000              RECHARGE =           0.0000

           TOTAL OUT =      691980.3750             TOTAL OUT =       99842.5938

            IN - OUT =        -220.9375              IN - OUT =          -7.0547

 PERCENT DISCREPANCY =          -0.03     PERCENT DISCREPANCY =          -0.01






         TIME SUMMARY AT END OF TIME STEP    6 IN STRESS PERIOD    1
                    SECONDS     MINUTES      HOURS       DAYS        YEARS
                    -----------------------------------------------------------
   TIME STEP LENGTH  86400.      1440.0      24.000      1.0000     2.73785E-03
 STRESS PERIOD TIME 5.18400E+05  8640.0      144.00      6.0000     1.64271E-02
         TOTAL TIME 5.18400E+05  8640.0      144.00      6.0000     1.64271E-02
1
 
 SOLVING FOR HEAD 
                                                   Max.-Head-Change                        Max.-Flux-Residual
  Residual-Control   Outer-Iter.   Inner-Iter.     Column Row Layer    Max.-Head-Change    Column Row Layer    Max.-Flux-Residual            L2-New               L2-Old           Solver-Max-Delh
          0                 1           2            14   14     1      -0.1552882682E+00      14   14    1      -0.1492887951E+04      0.8881314129E+04      0.5837659463E+01     -0.1552882682E+00
          0                 2           2            32   17     1      -0.1342333059E-01      32   17    1      -0.5696437249E+03      0.1098668170E+04      0.8881314129E+04     -0.1342333059E-01

    ------------------------------------------------
       NWT REQUIRED            2 OUTER ITERATIONS 
       AND A TOTAL OF          4 INNER ITERATIONS.
    ------------------------------------------------

 OUTPUT CONTROL FOR STRESS PERIOD    1   TIME STEP    7
    SAVE HEAD FOR ALL LAYERS
    SAVE DRAWDOWN FOR ALL LAYERS
    SAVE BUDGET
    PRINT BUDGET
 UBDSV1 SAVING "         STORAGE" ON UNIT   9 AT TIME STEP  7, STRESS PERIOD   1
 UBDSV2 SAVING "   CONSTANT HEAD" ON UNIT   9 AT TIME STEP  7, STRESS PERIOD   1
 UBDSV1 SAVING "FLOW RIGHT FACE " ON UNIT   9 AT TIME STEP  7, STRESS PERIOD   1
 UBDSV1 SAVING "FLOW FRONT FACE " ON UNIT   9 AT TIME STEP  7, STRESS PERIOD   1
 UBDSV4 SAVING "   RIVER LEAKAGE" ON UNIT   9 AT TIME STEP  7, STRESS PERIOD   1
 UBDSV3 SAVING "        RECHARGE" ON UNIT   9 AT TIME STEP  7, STRESS PERIOD   1

 HEAD WILL BE SAVED ON UNIT 5037 AT END OF TIME STEP    7, STRESS PERIOD    1

 DRAWDOWN WILL BE SAVED ON UNIT   38 AT END OF TIME STEP    7, STRESS PERIOD    1
1
  VOLUMETRIC BUDGET FOR ENTIRE MODEL AT END OF TIME STEP    7, STRESS PERIOD   1
  ------------------------------------------------------------------------------

     CUMULATIVE VOLUMES      L**3       RATES FOR THIS TIME STEP      L**3/T
     ------------------                 ------------------------

           IN:                                      IN:
           ---                                      ---
             STORAGE =      672089.8125               STORAGE =       92275.6641
       CONSTANT HEAD =           0.0000         CONSTANT HEAD =           0.0000
       RIVER LEAKAGE =      117642.5781         RIVER LEAKAGE =        5697.2720
            RECHARGE =           0.0000              RECHARGE =           0.0000

            TOTAL IN =      789732.3750              TOTAL IN =       97972.9375

          OUT:                                     OUT:
          ----                                     ----
             STORAGE =      634665.0000               STORAGE =       62182.6367
       CONSTANT HEAD =           0.0000         CONSTANT HEAD =           0.0000
       RIVER LEAKAGE =      155193.0625         RIVER LEAKAGE =       35695.0938
            RECHARGE =           0.0000              RECHARGE =           0.0000

           TOTAL OUT =      789858.0625             TOTAL OUT =       97877.7344

            IN - OUT =        -125.6875              IN - OUT =          95.2031

 PERCENT DISCREPANCY =          -0.02     PERCENT DISCREPANCY =           0.10






         TIME SUMMARY AT END OF TIME STEP    7 IN STRESS PERIOD    1
                    SECONDS     MINUTES      HOURS       DAYS        YEARS
                    -----------------------------------------------------------
   TIME STEP LENGTH  86400.      1440.0      24.000      1.0000     2.73785E-03
 STRESS PERIOD TIME 6.04800E+05  10080.      168.00      7.0000     1.91650E-02
         TOTAL TIME 6.04800E+05  10080.      168.00      7.0000     1.91650E-02
1
 
 SOLVING FOR HEAD 
                                                   Max.-Head-Change                        Max.-Flux-Residual
  Residual-Control   Outer-Iter.   Inner-Iter.     Column Row Layer    Max.-Head-Change    Column Row Layer    Max.-Flux-Residual            L2-New               L2-Old           Solver-Max-Delh
          0                 1           2            14   14     1      -0.1517083869E+00      14   14    1      -0.1458049578E+04      0.8783976303E+04      0.5493165713E+02     -0.1517083869E+00
          0                 2           2            34    9     1       0.7346907003E+01      26    7    1      -0.4748238535E+03      0.1033872060E+04      0.8783976303E+04      0.7346907003E+01
          0                 3           2            34    9     1      -0.6548852002E+00      34    9    1      -0.2546504625E+02      0.6142707626E+02      0.1033872060E+04     -0.6548852002E+00
          0                 4           2            34    9     1      -0.3272393441E-01      34    9    1      -0.1272525922E+01      0.3070561985E+01      0.6142707626E+02     -0.3272393441E-01

    ------------------------------------------------
       NWT REQUIRED            4 OUTER ITERATIONS 
       AND A TOTAL OF          8 INNER ITERATIONS.
    ------------------------------------------------

 OUTPUT CONTROL FOR STRESS PERIOD    1   TIME STEP    8
    SAVE HEAD FOR ALL LAYERS
    SAVE DRAWDOWN FOR ALL LAYERS
    SAVE BUDGET
    PRINT BUDGET
 UBDSV1 SAVING "         STORAGE" ON UNIT   9 AT TIME STEP  8, STRESS PERIOD   1
 UBDSV2 SAVING "   CONSTANT HEAD" ON UNIT   9 AT TIME STEP  8, STRESS PERIOD   1
 UBDSV1 SAVING "FLOW RIGHT FACE " ON UNIT   9 AT TIME STEP  8, STRESS PERIOD   1
 UBDSV1 SAVING "FLOW FRONT FACE " ON UNIT   9 AT TIME STEP  8, STRESS PERIOD   1
 UBDSV4 SAVING "   RIVER LEAKAGE" ON UNIT   9 AT TIME STEP  8, STRESS PERIOD   1
 UBDSV3 SAVING "        RECHARGE" ON UNIT   9 AT TIME STEP  8, STRESS PERIOD   1

 HEAD WILL BE SAVED ON UNIT 5037 AT END OF TIME STEP    8, STRESS PERIOD    1

 DRAWDOWN WILL BE SAVED ON UNIT   38 AT END OF TIME STEP    8, STRESS PERIOD    1
1
  VOLUMETRIC BUDGET FOR ENTIRE MODEL AT END OF TIME STEP    8, STRESS PERIOD   1
  ------------------------------------------------------------------------------

     CUMULATIVE VOLUMES      L**3       RATES FOR THIS TIME STEP      L**3/T
     ------------------                 ------------------------

           IN:                                      IN:
           ---                                      ---
             STORAGE =      762706.3125               STORAGE =       90616.4766
       CONSTANT HEAD =           0.0000         CONSTANT HEAD =           0.0000
       RIVER LEAKAGE =      122900.8047         RIVER LEAKAGE =        5258.2241
            RECHARGE =           0.0000              RECHARGE =           0.0000

            TOTAL IN =      885607.1250              TOTAL IN =       95874.7031

          OUT:                                     OUT:
          ----                                     ----
             STORAGE =      695409.6250               STORAGE =       60744.6445
       CONSTANT HEAD =           0.0000         CONSTANT HEAD =           0.0000
       RIVER LEAKAGE =      190322.8438         RIVER LEAKAGE =       35129.7734
            RECHARGE =           0.0000              RECHARGE =           0.0000

           TOTAL OUT =      885732.5000             TOTAL OUT =       95874.4219

            IN - OUT =        -125.3750              IN - OUT =           0.2812

 PERCENT DISCREPANCY =          -0.01     PERCENT DISCREPANCY =           0.00






         TIME SUMMARY AT END OF TIME STEP    8 IN STRESS PERIOD    1
                    SECONDS     MINUTES      HOURS       DAYS        YEARS
                    -----------------------------------------------------------
   TIME STEP LENGTH  86400.      1440.0      24.000      1.0000     2.73785E-03
 STRESS PERIOD TIME 6.91200E+05  11520.      192.00      8.0000     2.19028E-02
         TOTAL TIME 6.91200E+05  11520.      192.00      8.0000     2.19028E-02
1
 
 SOLVING FOR HEAD 
                                                   Max.-Head-Change                        Max.-Flux-Residual
  Residual-Control   Outer-Iter.   Inner-Iter.     Column Row Layer    Max.-Head-Change    Column Row Layer    Max.-Flux-Residual            L2-New               L2-Old           Solver-Max-Delh
          0                 1           2            34    9     1       0.5869304759E+01      14   14    1      -0.1424395094E+04      0.8608824490E+04      0.3070561985E+01      0.5869304759E+01
          0                 2           2            18   17     1       0.1575312530E+01      18   17    1       0.5338648965E+03      0.1043897103E+04      0.8608824490E+04      0.1575312530E+01
          0                 3           2            18   17     1      -0.1361696323E+00      18   17    1      -0.5361949039E+02      0.7336046906E+02      0.1043897103E+04     -0.1361696323E+00
          0                 4           2            18   17     1      -0.6808056399E-02      18   17    1      -0.2680796507E+01      0.3667568805E+01      0.7336046906E+02     -0.6808056399E-02

    ------------------------------------------------
       NWT REQUIRED            4 OUTER ITERATIONS 
       AND A TOTAL OF          8 INNER ITERATIONS.
    ------------------------------------------------

 OUTPUT CONTROL FOR STRESS PERIOD    1   TIME STEP    9
    SAVE HEAD FOR ALL LAYERS
    SAVE DRAWDOWN FOR ALL LAYERS
    SAVE BUDGET
    PRINT BUDGET
 UBDSV1 SAVING "         STORAGE" ON UNIT   9 AT TIME STEP  9, STRESS PERIOD   1
 UBDSV2 SAVING "   CONSTANT HEAD" ON UNIT   9 AT TIME STEP  9, STRESS PERIOD   1
 UBDSV1 SAVING "FLOW RIGHT FACE " ON UNIT   9 AT TIME STEP  9, STRESS PERIOD   1
 UBDSV1 SAVING "FLOW FRONT FACE " ON UNIT   9 AT TIME STEP  9, STRESS PERIOD   1
 UBDSV4 SAVING "   RIVER LEAKAGE" ON UNIT   9 AT TIME STEP  9, STRESS PERIOD   1
 UBDSV3 SAVING "        RECHARGE" ON UNIT   9 AT TIME STEP  9, STRESS PERIOD   1

 HEAD WILL BE SAVED ON UNIT 5037 AT END OF TIME STEP    9, STRESS PERIOD    1

 DRAWDOWN WILL BE SAVED ON UNIT   38 AT END OF TIME STEP    9, STRESS PERIOD    1
1
  VOLUMETRIC BUDGET FOR ENTIRE MODEL AT END OF TIME STEP    9, STRESS PERIOD   1
  ------------------------------------------------------------------------------

     CUMULATIVE VOLUMES      L**3       RATES FOR THIS TIME STEP      L**3/T
     ------------------                 ------------------------

           IN:                                      IN:
           ---                                      ---
             STORAGE =      852190.4375               STORAGE =       89484.1328
       CONSTANT HEAD =           0.0000         CONSTANT HEAD =           0.0000
       RIVER LEAKAGE =      127758.3203         RIVER LEAKAGE =        4857.5146
            RECHARGE =           0.0000              RECHARGE =           0.0000

            TOTAL IN =      979948.7500              TOTAL IN =       94341.6484

          OUT:                                     OUT:
          ----                                     ----
             STORAGE =      754106.0000               STORAGE =       58696.3633
       CONSTANT HEAD =           0.0000         CONSTANT HEAD =           0.0000
       RIVER LEAKAGE =      225967.8438         RIVER LEAKAGE =       35645.0039
            RECHARGE =           0.0000              RECHARGE =           0.0000

           TOTAL OUT =      980073.8750             TOTAL OUT =       94341.3672

            IN - OUT =        -125.1250              IN - OUT =           0.2812

 PERCENT DISCREPANCY =          -0.01     PERCENT DISCREPANCY =           0.00






         TIME SUMMARY AT END OF TIME STEP    9 IN STRESS PERIOD    1
                    SECONDS     MINUTES      HOURS       DAYS        YEARS
                    -----------------------------------------------------------
   TIME STEP LENGTH  86400.      1440.0      24.000      1.0000     2.73785E-03
 STRESS PERIOD TIME 7.77600E+05  12960.      216.00      9.0000     2.46407E-02
         TOTAL TIME 7.77600E+05  12960.      216.00      9.0000     2.46407E-02
1
 
 SOLVING FOR HEAD 
                                                   Max.-Head-Change                        Max.-Flux-Residual
  Residual-Control   Outer-Iter.   Inner-Iter.     Column Row Layer    Max.-Head-Change    Column Row Layer    Max.-Flux-Residual            L2-New               L2-Old           Solver-Max-Delh
          0                 1           2            18   17     1       0.2716464923E+01      14   14    1      -0.1391732761E+04      0.8450672340E+04      0.3667568805E+01      0.2716464923E+01
          0                 2           2            18   17     1      -0.2339425643E+00      19   15    1      -0.3871895409E+03      0.9288278596E+03      0.8450672340E+04     -0.2339425643E+00
          0                 3           2            18   17     1      -0.1169062119E-01      19   15    1      -0.1936049076E+02      0.4643788999E+02      0.9288278596E+03     -0.1169062119E-01

    ------------------------------------------------
       NWT REQUIRED            3 OUTER ITERATIONS 
       AND A TOTAL OF          6 INNER ITERATIONS.
    ------------------------------------------------

 OUTPUT CONTROL FOR STRESS PERIOD    1   TIME STEP   10
    SAVE HEAD FOR ALL LAYERS
    SAVE DRAWDOWN FOR ALL LAYERS
    SAVE BUDGET
    PRINT BUDGET
 UBDSV1 SAVING "         STORAGE" ON UNIT   9 AT TIME STEP 10, STRESS PERIOD   1
 UBDSV2 SAVING "   CONSTANT HEAD" ON UNIT   9 AT TIME STEP 10, STRESS PERIOD   1
 UBDSV1 SAVING "FLOW RIGHT FACE " ON UNIT   9 AT TIME STEP 10, STRESS PERIOD   1
 UBDSV1 SAVING "FLOW FRONT FACE " ON UNIT   9 AT TIME STEP 10, STRESS PERIOD   1
 UBDSV4 SAVING "   RIVER LEAKAGE" ON UNIT   9 AT TIME STEP 10, STRESS PERIOD   1
 UBDSV3 SAVING "        RECHARGE" ON UNIT   9 AT TIME STEP 10, STRESS PERIOD   1

 HEAD WILL BE SAVED ON UNIT 5037 AT END OF TIME STEP   10, STRESS PERIOD    1

 DRAWDOWN WILL BE SAVED ON UNIT   38 AT END OF TIME STEP   10, STRESS PERIOD    1
1
  VOLUMETRIC BUDGET FOR ENTIRE MODEL AT END OF TIME STEP   10, STRESS PERIOD   1
  ------------------------------------------------------------------------------

     CUMULATIVE VOLUMES      L**3       RATES FOR THIS TIME STEP      L**3/T
     ------------------                 ------------------------

           IN:                                      IN:
           ---                                      ---
             STORAGE =      940393.8750               STORAGE =       88203.4062
       CONSTANT HEAD =           0.0000         CONSTANT HEAD =           0.0000
       RIVER LEAKAGE =      132349.2656         RIVER LEAKAGE =        4590.9463
            RECHARGE =           0.0000              RECHARGE =           0.0000

            TOTAL IN =     1072743.1250              TOTAL IN =       92794.3516

          OUT:                                     OUT:
          ----                                     ----
             STORAGE =      811228.5625               STORAGE =       57122.5586
       CONSTANT HEAD =           0.0000         CONSTANT HEAD =           0.0000
       RIVER LEAKAGE =      261632.8906         RIVER LEAKAGE =       35665.0508
            RECHARGE =           0.0000              RECHARGE =           0.0000

           TOTAL OUT =     1072861.5000             TOTAL OUT =       92787.6094

            IN - OUT =        -118.3750              IN - OUT =           6.7422

 PERCENT DISCREPANCY =          -0.01     PERCENT DISCREPANCY =           0.01






         TIME SUMMARY AT END OF TIME STEP   10 IN STRESS PERIOD    1
                    SECONDS     MINUTES      HOURS       DAYS        YEARS
                    -----------------------------------------------------------
   TIME STEP LENGTH  86400.      1440.0      24.000      1.0000     2.73785E-03
 STRESS PERIOD TIME 8.64000E+05  14400.      240.00      10.000     2.73785E-02
         TOTAL TIME 8.64000E+05  14400.      240.00      10.000     2.73785E-02
1
 
 SOLVING FOR HEAD 
                                                   Max.-Head-Change                        Max.-Flux-Residual
  Residual-Control   Outer-Iter.   Inner-Iter.     Column Row Layer    Max.-Head-Change    Column Row Layer    Max.-Flux-Residual            L2-New               L2-Old           Solver-Max-Delh
          0                 1           2            18   17     1       0.1763528261E+01      14   14    1      -0.1359851960E+04      0.8263755408E+04      0.4643788999E+02      0.1763528261E+01
          0                 2           2            15   14     1       0.2594555229E+01      15   14    1       0.7745872815E+03      0.1267213617E+04      0.8263755408E+04      0.2594555229E+01
          1                 2           0            15   14     1       0.1816188630E+01      22    2    1       0.2316639223E+04      0.2319311817E+04      0.1267213617E+04      0.2594555229E+01
          2                 2           0            15   14     1       0.1271332019E+01      22    2    1       0.1596218674E+04      0.1635185108E+04      0.2319311817E+04      0.2594555229E+01
          0                 3           2            15   14     1       0.1195773178E+01      22    2    1       0.1091860243E+04      0.1258065956E+04      0.1635185108E+04      0.1195773178E+01
          0                 4           2            15   14     1      -0.1033611004E+00      22    2    1       0.1937740327E+03      0.2008306635E+03      0.1258065956E+04     -0.1033611004E+00
          0                 5           2            15   14     1      -0.5167653944E-02      22    2    1       0.3439296560E+02      0.3449386325E+02      0.2008306635E+03     -0.5167653944E-02

    ------------------------------------------------
       NWT REQUIRED            5 OUTER ITERATIONS 
       AND A TOTAL OF         10 INNER ITERATIONS.
    ------------------------------------------------

 OUTPUT CONTROL FOR STRESS PERIOD    1   TIME STEP   11
    SAVE HEAD FOR ALL LAYERS
    SAVE DRAWDOWN FOR ALL LAYERS
    SAVE BUDGET
    PRINT BUDGET
 UBDSV1 SAVING "         STORAGE" ON UNIT   9 AT TIME STEP 11, STRESS PERIOD   1
 UBDSV2 SAVING "   CONSTANT HEAD" ON UNIT   9 AT TIME STEP 11, STRESS PERIOD   1
 UBDSV1 SAVING "FLOW RIGHT FACE " ON UNIT   9 AT TIME STEP 11, STRESS PERIOD   1
 UBDSV1 SAVING "FLOW FRONT FACE " ON UNIT   9 AT TIME STEP 11, STRESS PERIOD   1
 UBDSV4 SAVING "   RIVER LEAKAGE" ON UNIT   9 AT TIME STEP 11, STRESS PERIOD   1
 UBDSV3 SAVING "        RECHARGE" ON UNIT   9 AT TIME STEP 11, STRESS PERIOD   1

 HEAD WILL BE SAVED ON UNIT 5037 AT END OF TIME STEP   11, STRESS PERIOD    1

 DRAWDOWN WILL BE SAVED ON UNIT   38 AT END OF TIME STEP   11, STRESS PERIOD    1
1
  VOLUMETRIC BUDGET FOR ENTIRE MODEL AT END OF TIME STEP   11, STRESS PERIOD   1
  ------------------------------------------------------------------------------

     CUMULATIVE VOLUMES      L**3       RATES FOR THIS TIME STEP      L**3/T
     ------------------                 ------------------------

           IN:                                      IN:
           ---                                      ---
             STORAGE =     1027183.1250               STORAGE =       86789.2344
       CONSTANT HEAD =           0.0000         CONSTANT HEAD =           0.0000
       RIVER LEAKAGE =      136825.5469         RIVER LEAKAGE =        4476.2754
            RECHARGE =           0.0000              RECHARGE =           0.0000

            TOTAL IN =     1164008.6250              TOTAL IN =       91265.5078

          OUT:                                     OUT:
          ----                                     ----
             STORAGE =      866905.2500               STORAGE =       55676.6992
       CONSTANT HEAD =           0.0000         CONSTANT HEAD =           0.0000
       RIVER LEAKAGE =      297215.5312         RIVER LEAKAGE =       35582.6289
            RECHARGE =           0.0000              RECHARGE =           0.0000

           TOTAL OUT =     1164120.7500             TOTAL OUT =       91259.3281

            IN - OUT =        -112.1250              IN - OUT =           6.1797

 PERCENT DISCREPANCY =          -0.01     PERCENT DISCREPANCY =           0.01






         TIME SUMMARY AT END OF TIME STEP   11 IN STRESS PERIOD    1
                    SECONDS     MINUTES      HOURS       DAYS        YEARS
                    -----------------------------------------------------------
   TIME STEP LENGTH  86400.      1440.0      24.000      1.0000     2.73785E-03
 STRESS PERIOD TIME 9.50400E+05  15840.      264.00      11.000     3.01164E-02
         TOTAL TIME 9.50400E+05  15840.      264.00      11.000     3.01164E-02
1
 
 SOLVING FOR HEAD 
                                                   Max.-Head-Change                        Max.-Flux-Residual
  Residual-Control   Outer-Iter.   Inner-Iter.     Column Row Layer    Max.-Head-Change    Column Row Layer    Max.-Flux-Residual            L2-New               L2-Old           Solver-Max-Delh
          0                 1           2            15   14     1       0.2041336402E+01      21    2    1      -0.1326342196E+04      0.8052593416E+04      0.3449386325E+02      0.2041336402E+01
          0                 2           2            36   15     1       0.4123497309E+01      22    2    1       0.7044793715E+03      0.1229196822E+04      0.8052593416E+04      0.4123497309E+01
          0                 3           2            36   15     1      -0.3569133795E+00      22    2    1      -0.6653076812E+02      0.1051038748E+03      0.1229196822E+04     -0.3569133795E+00
          0                 4           2            36   15     1      -0.1784186670E-01      22    2    1      -0.3326197181E+01      0.5254252394E+01      0.1051038748E+03     -0.1784186670E-01

    ------------------------------------------------
       NWT REQUIRED            4 OUTER ITERATIONS 
       AND A TOTAL OF          8 INNER ITERATIONS.
    ------------------------------------------------

 OUTPUT CONTROL FOR STRESS PERIOD    1   TIME STEP   12
    SAVE HEAD FOR ALL LAYERS
    SAVE DRAWDOWN FOR ALL LAYERS
    SAVE BUDGET
    PRINT BUDGET
 UBDSV1 SAVING "         STORAGE" ON UNIT   9 AT TIME STEP 12, STRESS PERIOD   1
 UBDSV2 SAVING "   CONSTANT HEAD" ON UNIT   9 AT TIME STEP 12, STRESS PERIOD   1
 UBDSV1 SAVING "FLOW RIGHT FACE " ON UNIT   9 AT TIME STEP 12, STRESS PERIOD   1
 UBDSV1 SAVING "FLOW FRONT FACE " ON UNIT   9 AT TIME STEP 12, STRESS PERIOD   1
 UBDSV4 SAVING "   RIVER LEAKAGE" ON UNIT   9 AT TIME STEP 12, STRESS PERIOD   1
 UBDSV3 SAVING "        RECHARGE" ON UNIT   9 AT TIME STEP 12, STRESS PERIOD   1

 HEAD WILL BE SAVED ON UNIT 5037 AT END OF TIME STEP   12, STRESS PERIOD    1

 DRAWDOWN WILL BE SAVED ON UNIT   38 AT END OF TIME STEP   12, STRESS PERIOD    1
1
  VOLUMETRIC BUDGET FOR ENTIRE MODEL AT END OF TIME STEP   12, STRESS PERIOD   1
  ------------------------------------------------------------------------------

     CUMULATIVE VOLUMES      L**3       RATES FOR THIS TIME STEP      L**3/T
     ------------------                 ------------------------

           IN:                                      IN:
           ---                                      ---
             STORAGE =     1112295.5000               STORAGE =       85112.4219
       CONSTANT HEAD =           0.0000         CONSTANT HEAD =           0.0000
       RIVER LEAKAGE =      141279.6406         RIVER LEAKAGE =        4454.0918
            RECHARGE =           0.0000              RECHARGE =           0.0000

            TOTAL IN =     1253575.1250              TOTAL IN =       89566.5156

          OUT:                                     OUT:
          ----                                     ----
             STORAGE =      920992.6875               STORAGE =       54087.4531
       CONSTANT HEAD =           0.0000         CONSTANT HEAD =           0.0000
       RIVER LEAKAGE =      332694.3125         RIVER LEAKAGE =       35478.7969
            RECHARGE =           0.0000              RECHARGE =           0.0000

           TOTAL OUT =     1253687.0000             TOTAL OUT =       89566.2500

            IN - OUT =        -111.8750              IN - OUT =           0.2656

 PERCENT DISCREPANCY =          -0.01     PERCENT DISCREPANCY =           0.00






         TIME SUMMARY AT END OF TIME STEP   12 IN STRESS PERIOD    1
                    SECONDS     MINUTES      HOURS       DAYS        YEARS
                    -----------------------------------------------------------
   TIME STEP LENGTH  86400.      1440.0      24.000      1.0000     2.73785E-03
 STRESS PERIOD TIME 1.03680E+06  17280.      288.00      12.000     3.28542E-02
         TOTAL TIME 1.03680E+06  17280.      288.00      12.000     3.28542E-02
1
 
 SOLVING FOR HEAD 
                                                   Max.-Head-Change                        Max.-Flux-Residual
  Residual-Control   Outer-Iter.   Inner-Iter.     Column Row Layer    Max.-Head-Change    Column Row Layer    Max.-Flux-Residual            L2-New               L2-Old           Solver-Max-Delh
          0                 1           2            11   13     1       0.3790062151E+01      17   15    1       0.1237105268E+04      0.7814839382E+04      0.5254252394E+01      0.3790062151E+01
          0                 2           2            13   14     1       0.1016154439E+01      13   14    1       0.3068541412E+03      0.9366967323E+03      0.7814839382E+04      0.1016154439E+01
          0                 3           2            13   14     1      -0.8778849529E-01      13   14    1      -0.3078362691E+02      0.5471331117E+02      0.9366967323E+03     -0.8778849529E-01

    ------------------------------------------------
       NWT REQUIRED            3 OUTER ITERATIONS 
       AND A TOTAL OF          6 INNER ITERATIONS.
    ------------------------------------------------

 OUTPUT CONTROL FOR STRESS PERIOD    1   TIME STEP   13
    SAVE HEAD FOR ALL LAYERS
    SAVE DRAWDOWN FOR ALL LAYERS
    SAVE BUDGET
    PRINT BUDGET
 UBDSV1 SAVING "         STORAGE" ON UNIT   9 AT TIME STEP 13, STRESS PERIOD   1
 UBDSV2 SAVING "   CONSTANT HEAD" ON UNIT   9 AT TIME STEP 13, STRESS PERIOD   1
 UBDSV1 SAVING "FLOW RIGHT FACE " ON UNIT   9 AT TIME STEP 13, STRESS PERIOD   1
 UBDSV1 SAVING "FLOW FRONT FACE " ON UNIT   9 AT TIME STEP 13, STRESS PERIOD   1
 UBDSV4 SAVING "   RIVER LEAKAGE" ON UNIT   9 AT TIME STEP 13, STRESS PERIOD   1
 UBDSV3 SAVING "        RECHARGE" ON UNIT   9 AT TIME STEP 13, STRESS PERIOD   1

 HEAD WILL BE SAVED ON UNIT 5037 AT END OF TIME STEP   13, STRESS PERIOD    1

 DRAWDOWN WILL BE SAVED ON UNIT   38 AT END OF TIME STEP   13, STRESS PERIOD    1
1
  VOLUMETRIC BUDGET FOR ENTIRE MODEL AT END OF TIME STEP   13, STRESS PERIOD   1
  ------------------------------------------------------------------------------

     CUMULATIVE VOLUMES      L**3       RATES FOR THIS TIME STEP      L**3/T
     ------------------                 ------------------------

           IN:                                      IN:
           ---                                      ---
             STORAGE =     1195783.6250               STORAGE =       83488.1484
       CONSTANT HEAD =           0.0000         CONSTANT HEAD =           0.0000
       RIVER LEAKAGE =      145578.1719         RIVER LEAKAGE =        4298.5342
            RECHARGE =           0.0000              RECHARGE =           0.0000

            TOTAL IN =     1341361.7500              TOTAL IN =       87786.6797

          OUT:                                     OUT:
          ----                                     ----
             STORAGE =      973403.3750               STORAGE =       52410.6914
       CONSTANT HEAD =           0.0000         CONSTANT HEAD =           0.0000
       RIVER LEAKAGE =      368064.9375         RIVER LEAKAGE =       35370.6133
            RECHARGE =           0.0000              RECHARGE =           0.0000

           TOTAL OUT =     1341468.2500             TOTAL OUT =       87781.3047

            IN - OUT =        -106.5000              IN - OUT =           5.3750

 PERCENT DISCREPANCY =          -0.01     PERCENT DISCREPANCY =           0.01






         TIME SUMMARY AT END OF TIME STEP   13 IN STRESS PERIOD    1
                    SECONDS     MINUTES      HOURS       DAYS        YEARS
                    -----------------------------------------------------------
   TIME STEP LENGTH  86400.      1440.0      24.000      1.0000     2.73785E-03
 STRESS PERIOD TIME 1.12320E+06  18720.      312.00      13.000     3.55921E-02
         TOTAL TIME 1.12320E+06  18720.      312.00      13.000     3.55921E-02
1
 
 SOLVING FOR HEAD 
                                                   Max.-Head-Change                        Max.-Flux-Residual
  Residual-Control   Outer-Iter.   Inner-Iter.     Column Row Layer    Max.-Head-Change    Column Row Layer    Max.-Flux-Residual            L2-New               L2-Old           Solver-Max-Delh
          0                 1           2            11   13     1       0.2257266223E+01      17   15    1       0.1221556169E+04      0.7594914035E+04      0.5471331117E+02      0.2257266223E+01
          0                 2           2            35   16     1       0.1768610361E+01      35   16    1       0.4683766461E+03      0.8890220130E+03      0.7594914035E+04      0.1768610361E+01
          0                 3           2            35   16     1      -0.1460104957E+00      35   16    1      -0.4392569741E+02      0.5969499007E+02      0.8890220130E+03     -0.1460104957E+00
          0                 4           2            35   16     1      -0.7300022374E-02      35   16    1      -0.2196126447E+01      0.2984347170E+01      0.5969499007E+02     -0.7300022374E-02

    ------------------------------------------------
       NWT REQUIRED            4 OUTER ITERATIONS 
       AND A TOTAL OF          8 INNER ITERATIONS.
    ------------------------------------------------

 OUTPUT CONTROL FOR STRESS PERIOD    1   TIME STEP   14
    SAVE HEAD FOR ALL LAYERS
    SAVE DRAWDOWN FOR ALL LAYERS
    SAVE BUDGET
    PRINT BUDGET
 UBDSV1 SAVING "         STORAGE" ON UNIT   9 AT TIME STEP 14, STRESS PERIOD   1
 UBDSV2 SAVING "   CONSTANT HEAD" ON UNIT   9 AT TIME STEP 14, STRESS PERIOD   1
 UBDSV1 SAVING "FLOW RIGHT FACE " ON UNIT   9 AT TIME STEP 14, STRESS PERIOD   1
 UBDSV1 SAVING "FLOW FRONT FACE " ON UNIT   9 AT TIME STEP 14, STRESS PERIOD   1
 UBDSV4 SAVING "   RIVER LEAKAGE" ON UNIT   9 AT TIME STEP 14, STRESS PERIOD   1
 UBDSV3 SAVING "        RECHARGE" ON UNIT   9 AT TIME STEP 14, STRESS PERIOD   1

 HEAD WILL BE SAVED ON UNIT 5037 AT END OF TIME STEP   14, STRESS PERIOD    1

 DRAWDOWN WILL BE SAVED ON UNIT   38 AT END OF TIME STEP   14, STRESS PERIOD    1
1
  VOLUMETRIC BUDGET FOR ENTIRE MODEL AT END OF TIME STEP   14, STRESS PERIOD   1
  ------------------------------------------------------------------------------

     CUMULATIVE VOLUMES      L**3       RATES FOR THIS TIME STEP      L**3/T
     ------------------                 ------------------------

           IN:                                      IN:
           ---                                      ---
             STORAGE =     1277710.8750               STORAGE =       81927.2188
       CONSTANT HEAD =           0.0000         CONSTANT HEAD =           0.0000
       RIVER LEAKAGE =      149717.4219         RIVER LEAKAGE =        4139.2510
            RECHARGE =           0.0000              RECHARGE =           0.0000

            TOTAL IN =     1427428.2500              TOTAL IN =       86066.4688

          OUT:                                     OUT:
          ----                                     ----
             STORAGE =     1024207.8125               STORAGE =       50804.4375
       CONSTANT HEAD =           0.0000         CONSTANT HEAD =           0.0000
       RIVER LEAKAGE =      403326.6250         RIVER LEAKAGE =       35261.6914
            RECHARGE =           0.0000              RECHARGE =           0.0000

           TOTAL OUT =     1427534.5000             TOTAL OUT =       86066.1250

            IN - OUT =        -106.2500              IN - OUT =           0.3438

 PERCENT DISCREPANCY =          -0.01     PERCENT DISCREPANCY =           0.00






         TIME SUMMARY AT END OF TIME STEP   14 IN STRESS PERIOD    1
                    SECONDS     MINUTES      HOURS       DAYS        YEARS
                    -----------------------------------------------------------
   TIME STEP LENGTH  86400.      1440.0      24.000      1.0000     2.73785E-03
 STRESS PERIOD TIME 1.20960E+06  20160.      336.00      14.000     3.83299E-02
         TOTAL TIME 1.20960E+06  20160.      336.00      14.000     3.83299E-02
1
 
 SOLVING FOR HEAD 
                                                   Max.-Head-Change                        Max.-Flux-Residual
  Residual-Control   Outer-Iter.   Inner-Iter.     Column Row Layer    Max.-Head-Change    Column Row Layer    Max.-Flux-Residual            L2-New               L2-Old           Solver-Max-Delh
          0                 1           2            35   16     1       0.1964120886E+01      17   15    1       0.1206329090E+04      0.7419492839E+04      0.2984347170E+01      0.1964120886E+01
          0                 2           2            35   16     1      -0.1692185606E+00      28   18    1      -0.2689366639E+03      0.7867372326E+03      0.7419492839E+04     -0.1692185606E+00
          0                 3           2            21   14     1      -0.1406152869E-01      28   18    1      -0.1344730615E+02      0.3952747035E+02      0.7867372326E+03     -0.1406152869E-01

    ------------------------------------------------
       NWT REQUIRED            3 OUTER ITERATIONS 
       AND A TOTAL OF          6 INNER ITERATIONS.
    ------------------------------------------------

 OUTPUT CONTROL FOR STRESS PERIOD    1   TIME STEP   15
    SAVE HEAD FOR ALL LAYERS
    SAVE DRAWDOWN FOR ALL LAYERS
    SAVE BUDGET
    PRINT BUDGET
 UBDSV1 SAVING "         STORAGE" ON UNIT   9 AT TIME STEP 15, STRESS PERIOD   1
 UBDSV2 SAVING "   CONSTANT HEAD" ON UNIT   9 AT TIME STEP 15, STRESS PERIOD   1
 UBDSV1 SAVING "FLOW RIGHT FACE " ON UNIT   9 AT TIME STEP 15, STRESS PERIOD   1
 UBDSV1 SAVING "FLOW FRONT FACE " ON UNIT   9 AT TIME STEP 15, STRESS PERIOD   1
 UBDSV4 SAVING "   RIVER LEAKAGE" ON UNIT   9 AT TIME STEP 15, STRESS PERIOD   1
 UBDSV3 SAVING "        RECHARGE" ON UNIT   9 AT TIME STEP 15, STRESS PERIOD   1

 HEAD WILL BE SAVED ON UNIT 5037 AT END OF TIME STEP   15, STRESS PERIOD    1

 DRAWDOWN WILL BE SAVED ON UNIT   38 AT END OF TIME STEP   15, STRESS PERIOD    1
1
  VOLUMETRIC BUDGET FOR ENTIRE MODEL AT END OF TIME STEP   15, STRESS PERIOD   1
  ------------------------------------------------------------------------------

     CUMULATIVE VOLUMES      L**3       RATES FOR THIS TIME STEP      L**3/T
     ------------------                 ------------------------

           IN:                                      IN:
           ---                                      ---
             STORAGE =     1358363.5000               STORAGE =       80652.6484
       CONSTANT HEAD =           0.0000         CONSTANT HEAD =           0.0000
       RIVER LEAKAGE =      153768.5156         RIVER LEAKAGE =        4051.1003
            RECHARGE =           0.0000              RECHARGE =           0.0000

            TOTAL IN =     1512132.0000              TOTAL IN =       84703.7500

          OUT:                                     OUT:
          ----                                     ----
             STORAGE =     1073747.6250               STORAGE =       49539.8008
       CONSTANT HEAD =           0.0000         CONSTANT HEAD =           0.0000
       RIVER LEAKAGE =      438483.3750         RIVER LEAKAGE =       35156.7656
            RECHARGE =           0.0000              RECHARGE =           0.0000

           TOTAL OUT =     1512231.0000             TOTAL OUT =       84696.5625

            IN - OUT =         -99.0000              IN - OUT =           7.1875

 PERCENT DISCREPANCY =          -0.01     PERCENT DISCREPANCY =           0.01






         TIME SUMMARY AT END OF TIME STEP   15 IN STRESS PERIOD    1
                    SECONDS     MINUTES      HOURS       DAYS        YEARS
                    -----------------------------------------------------------
   TIME STEP LENGTH  86400.      1440.0      24.000      1.0000     2.73785E-03
 STRESS PERIOD TIME 1.29600E+06  21600.      360.00      15.000     4.10678E-02
         TOTAL TIME 1.29600E+06  21600.      360.00      15.000     4.10678E-02
1
 
 SOLVING FOR HEAD 
                                                   Max.-Head-Change                        Max.-Flux-Residual
  Residual-Control   Outer-Iter.   Inner-Iter.     Column Row Layer    Max.-Head-Change    Column Row Layer    Max.-Flux-Residual            L2-New               L2-Old           Solver-Max-Delh
          0                 1           2            21   14     1       0.3380311987E+01      17   15    1       0.1191263436E+04      0.7285339078E+04      0.3952747035E+02      0.3380311987E+01
          0                 2           2            12   14     1       0.2185917919E+01      17   15    1       0.5890271996E+03      0.1052166878E+04      0.7285339078E+04      0.2185917919E+01
          0                 3           2            17   15     1      -0.1768529988E+00      17   15    1      -0.5921525167E+02      0.8680952200E+02      0.1052166878E+04     -0.1768529988E+00
          0                 4           2            17   15     1      -0.8841597824E-02      17   15    1      -0.2960414365E+01      0.4339912083E+01      0.8680952200E+02     -0.8841597824E-02

    ------------------------------------------------
       NWT REQUIRED            4 OUTER ITERATIONS 
       AND A TOTAL OF          8 INNER ITERATIONS.
    ------------------------------------------------

 OUTPUT CONTROL FOR STRESS PERIOD    1   TIME STEP   16
    SAVE HEAD FOR ALL LAYERS
    SAVE DRAWDOWN FOR ALL LAYERS
    SAVE BUDGET
    PRINT BUDGET
 UBDSV1 SAVING "         STORAGE" ON UNIT   9 AT TIME STEP 16, STRESS PERIOD   1
 UBDSV2 SAVING "   CONSTANT HEAD" ON UNIT   9 AT TIME STEP 16, STRESS PERIOD   1
 UBDSV1 SAVING "FLOW RIGHT FACE " ON UNIT   9 AT TIME STEP 16, STRESS PERIOD   1
 UBDSV1 SAVING "FLOW FRONT FACE " ON UNIT   9 AT TIME STEP 16, STRESS PERIOD   1
 UBDSV4 SAVING "   RIVER LEAKAGE" ON UNIT   9 AT TIME STEP 16, STRESS PERIOD   1
 UBDSV3 SAVING "        RECHARGE" ON UNIT   9 AT TIME STEP 16, STRESS PERIOD   1

 HEAD WILL BE SAVED ON UNIT 5037 AT END OF TIME STEP   16, STRESS PERIOD    1

 DRAWDOWN WILL BE SAVED ON UNIT   38 AT END OF TIME STEP   16, STRESS PERIOD    1
1
  VOLUMETRIC BUDGET FOR ENTIRE MODEL AT END OF TIME STEP   16, STRESS PERIOD   1
  ------------------------------------------------------------------------------

     CUMULATIVE VOLUMES      L**3       RATES FOR THIS TIME STEP      L**3/T
     ------------------                 ------------------------

           IN:                                      IN:
           ---                                      ---
             STORAGE =     1437479.2500               STORAGE =       79115.7500
       CONSTANT HEAD =           0.0000         CONSTANT HEAD =           0.0000
       RIVER LEAKAGE =      157785.0625         RIVER LEAKAGE =        4016.5413
            RECHARGE =           0.0000              RECHARGE =           0.0000

            TOTAL IN =     1595264.2500              TOTAL IN =       83132.2891

          OUT:                                     OUT:
          ----                                     ----
             STORAGE =     1121743.5000               STORAGE =       47995.8203
       CONSTANT HEAD =           0.0000         CONSTANT HEAD =           0.0000
       RIVER LEAKAGE =      473619.5625         RIVER LEAKAGE =       35136.1875
            RECHARGE =           0.0000              RECHARGE =           0.0000

           TOTAL OUT =     1595363.0000             TOTAL OUT =       83132.0078

            IN - OUT =         -98.7500              IN - OUT =           0.2812

 PERCENT DISCREPANCY =          -0.01     PERCENT DISCREPANCY =           0.00






         TIME SUMMARY AT END OF TIME STEP   16 IN STRESS PERIOD    1
                    SECONDS     MINUTES      HOURS       DAYS        YEARS
                    -----------------------------------------------------------
   TIME STEP LENGTH  86400.      1440.0      24.000      1.0000     2.73785E-03
 STRESS PERIOD TIME 1.38240E+06  23040.      384.00      16.000     4.38056E-02
         TOTAL TIME 1.38240E+06  23040.      384.00      16.000     4.38056E-02
1
 
 SOLVING FOR HEAD 
                                                   Max.-Head-Change                        Max.-Flux-Residual
  Residual-Control   Outer-Iter.   Inner-Iter.     Column Row Layer    Max.-Head-Change    Column Row Layer    Max.-Flux-Residual            L2-New               L2-Old           Solver-Max-Delh
          0                 1           2            17   15     1       0.3120450289E+01      21    2    1      -0.1025829934E+04      0.7747918822E+04      0.4339912083E+01      0.3120450289E+01
          0                 2           2            27   14     1       0.1130538089E+01      29   20    1      -0.2915060247E+03      0.9061749740E+03      0.7747918822E+04      0.1130538089E+01
          0                 3           2            27   14     1      -0.9773337358E-01      19   18    1      -0.2737461717E+02      0.5778367475E+02      0.9061749740E+03     -0.9773337358E-01

    ------------------------------------------------
       NWT REQUIRED            3 OUTER ITERATIONS 
       AND A TOTAL OF          6 INNER ITERATIONS.
    ------------------------------------------------

 OUTPUT CONTROL FOR STRESS PERIOD    1   TIME STEP   17
    SAVE HEAD FOR ALL LAYERS
    SAVE DRAWDOWN FOR ALL LAYERS
    SAVE BUDGET
    PRINT BUDGET
 UBDSV1 SAVING "         STORAGE" ON UNIT   9 AT TIME STEP 17, STRESS PERIOD   1
 UBDSV2 SAVING "   CONSTANT HEAD" ON UNIT   9 AT TIME STEP 17, STRESS PERIOD   1
 UBDSV1 SAVING "FLOW RIGHT FACE " ON UNIT   9 AT TIME STEP 17, STRESS PERIOD   1
 UBDSV1 SAVING "FLOW FRONT FACE " ON UNIT   9 AT TIME STEP 17, STRESS PERIOD   1
 UBDSV4 SAVING "   RIVER LEAKAGE" ON UNIT   9 AT TIME STEP 17, STRESS PERIOD   1
 UBDSV3 SAVING "        RECHARGE" ON UNIT   9 AT TIME STEP 17, STRESS PERIOD   1

 HEAD WILL BE SAVED ON UNIT 5037 AT END OF TIME STEP   17, STRESS PERIOD    1

 DRAWDOWN WILL BE SAVED ON UNIT   38 AT END OF TIME STEP   17, STRESS PERIOD    1
1
  VOLUMETRIC BUDGET FOR ENTIRE MODEL AT END OF TIME STEP   17, STRESS PERIOD   1
  ------------------------------------------------------------------------------

     CUMULATIVE VOLUMES      L**3       RATES FOR THIS TIME STEP      L**3/T
     ------------------                 ------------------------

           IN:                                      IN:
           ---                                      ---
             STORAGE =     1513707.2500               STORAGE =       76228.0000
       CONSTANT HEAD =           0.0000         CONSTANT HEAD =           0.0000
       RIVER LEAKAGE =      164912.9844         RIVER LEAKAGE =        7127.9253
            RECHARGE =           0.0000              RECHARGE =           0.0000

            TOTAL IN =     1678620.2500              TOTAL IN =       83355.9219

          OUT:                                     OUT:
          ----                                     ----
             STORAGE =     1176898.0000               STORAGE =       55154.4570
       CONSTANT HEAD =           0.0000         CONSTANT HEAD =           0.0000
       RIVER LEAKAGE =      501824.2188         RIVER LEAKAGE =       28204.6680
            RECHARGE =           0.0000              RECHARGE =           0.0000

           TOTAL OUT =     1678722.2500             TOTAL OUT =       83359.1250

            IN - OUT =        -102.0000              IN - OUT =          -3.2031

 PERCENT DISCREPANCY =          -0.01     PERCENT DISCREPANCY =          -0.00






         TIME SUMMARY AT END OF TIME STEP   17 IN STRESS PERIOD    1
                    SECONDS     MINUTES      HOURS       DAYS        YEARS
                    -----------------------------------------------------------
   TIME STEP LENGTH  86400.      1440.0      24.000      1.0000     2.73785E-03
 STRESS PERIOD TIME 1.46880E+06  24480.      408.00      17.000     4.65435E-02
         TOTAL TIME 1.46880E+06  24480.      408.00      17.000     4.65435E-02
1
 
 SOLVING FOR HEAD 
                                                   Max.-Head-Change                        Max.-Flux-Residual
  Residual-Control   Outer-Iter.   Inner-Iter.     Column Row Layer    Max.-Head-Change    Column Row Layer    Max.-Flux-Residual            L2-New               L2-Old           Solver-Max-Delh
          0                 1           2            13   10     1       0.5419602327E+01      21    2    1      -0.1000022478E+04      0.7318337266E+04      0.5778367475E+02      0.5419602327E+01
          0                 2           2            21    3     1       0.2254455967E+01      21    3    1       0.3372300768E+03      0.8031805148E+03      0.7318337266E+04      0.2254455967E+01
          0                 3           2            21    3     1      -0.1949392630E+00      21    3    1      -0.3388900223E+02      0.5173162413E+02      0.8031805148E+03     -0.1949392630E+00
          0                 4           2            21    3     1      -0.9745873876E-02      21    3    1      -0.1694261864E+01      0.2586134612E+01      0.5173162413E+02     -0.9745873876E-02

    ------------------------------------------------
       NWT REQUIRED            4 OUTER ITERATIONS 
       AND A TOTAL OF          8 INNER ITERATIONS.
    ------------------------------------------------

 OUTPUT CONTROL FOR STRESS PERIOD    1   TIME STEP   18
    SAVE HEAD FOR ALL LAYERS
    SAVE DRAWDOWN FOR ALL LAYERS
    SAVE BUDGET
    PRINT BUDGET
 UBDSV1 SAVING "         STORAGE" ON UNIT   9 AT TIME STEP 18, STRESS PERIOD   1
 UBDSV2 SAVING "   CONSTANT HEAD" ON UNIT   9 AT TIME STEP 18, STRESS PERIOD   1
 UBDSV1 SAVING "FLOW RIGHT FACE " ON UNIT   9 AT TIME STEP 18, STRESS PERIOD   1
 UBDSV1 SAVING "FLOW FRONT FACE " ON UNIT   9 AT TIME STEP 18, STRESS PERIOD   1
 UBDSV4 SAVING "   RIVER LEAKAGE" ON UNIT   9 AT TIME STEP 18, STRESS PERIOD   1
 UBDSV3 SAVING "        RECHARGE" ON UNIT   9 AT TIME STEP 18, STRESS PERIOD   1

 HEAD WILL BE SAVED ON UNIT 5037 AT END OF TIME STEP   18, STRESS PERIOD    1

 DRAWDOWN WILL BE SAVED ON UNIT   38 AT END OF TIME STEP   18, STRESS PERIOD    1
1
  VOLUMETRIC BUDGET FOR ENTIRE MODEL AT END OF TIME STEP   18, STRESS PERIOD   1
  ------------------------------------------------------------------------------

     CUMULATIVE VOLUMES      L**3       RATES FOR THIS TIME STEP      L**3/T
     ------------------                 ------------------------

           IN:                                      IN:
           ---                                      ---
             STORAGE =     1596160.3750               STORAGE =       82453.0859
       CONSTANT HEAD =           0.0000         CONSTANT HEAD =           0.0000
       RIVER LEAKAGE =      168191.6562         RIVER LEAKAGE =        3278.6685
            RECHARGE =           0.0000              RECHARGE =           0.0000

            TOTAL IN =     1764352.0000              TOTAL IN =       85731.7578

          OUT:                                     OUT:
          ----                                     ----
             STORAGE =     1221857.8750               STORAGE =       44959.9102
       CONSTANT HEAD =           0.0000         CONSTANT HEAD =           0.0000
       RIVER LEAKAGE =      542595.3750         RIVER LEAKAGE =       40771.1484
            RECHARGE =           0.0000              RECHARGE =           0.0000

           TOTAL OUT =     1764453.2500             TOTAL OUT =       85731.0625

            IN - OUT =        -101.2500              IN - OUT =           0.6953

 PERCENT DISCREPANCY =          -0.01     PERCENT DISCREPANCY =           0.00






         TIME SUMMARY AT END OF TIME STEP   18 IN STRESS PERIOD    1
                    SECONDS     MINUTES      HOURS       DAYS        YEARS
                    -----------------------------------------------------------
   TIME STEP LENGTH  86400.      1440.0      24.000      1.0000     2.73785E-03
 STRESS PERIOD TIME 1.55520E+06  25920.      432.00      18.000     4.92813E-02
         TOTAL TIME 1.55520E+06  25920.      432.00      18.000     4.92813E-02
1
 
 SOLVING FOR HEAD 
                                                   Max.-Head-Change                        Max.-Flux-Residual
  Residual-Control   Outer-Iter.   Inner-Iter.     Column Row Layer    Max.-Head-Change    Column Row Layer    Max.-Flux-Residual            L2-New               L2-Old           Solver-Max-Delh
          0                 1           2            13   10     1       0.2693079910E+01      21    2    1      -0.9231785616E+03      0.7174283775E+04      0.2586134612E+01      0.2693079910E+01
          0                 2           2            25   13     1       0.2470459680E+01      26   10    1       0.3138801874E+03      0.8401348185E+03      0.7174283775E+04      0.2470459680E+01
          0                 3           2            26   10     1      -0.1982416856E+00      26   10    1      -0.3153266331E+02      0.5630787467E+02      0.8401348185E+03     -0.1982416856E+00
          0                 4           2            26   10     1      -0.9910857288E-02      26   10    1      -0.1576440989E+01      0.2815157664E+01      0.5630787467E+02     -0.9910857288E-02

    ------------------------------------------------
       NWT REQUIRED            4 OUTER ITERATIONS 
       AND A TOTAL OF          8 INNER ITERATIONS.
    ------------------------------------------------

 OUTPUT CONTROL FOR STRESS PERIOD    1   TIME STEP   19
    SAVE HEAD FOR ALL LAYERS
    SAVE DRAWDOWN FOR ALL LAYERS
    SAVE BUDGET
    PRINT BUDGET
 UBDSV1 SAVING "         STORAGE" ON UNIT   9 AT TIME STEP 19, STRESS PERIOD   1
 UBDSV2 SAVING "   CONSTANT HEAD" ON UNIT   9 AT TIME STEP 19, STRESS PERIOD   1
 UBDSV1 SAVING "FLOW RIGHT FACE " ON UNIT   9 AT TIME STEP 19, STRESS PERIOD   1
 UBDSV1 SAVING "FLOW FRONT FACE " ON UNIT   9 AT TIME STEP 19, STRESS PERIOD   1
 UBDSV4 SAVING "   RIVER LEAKAGE" ON UNIT   9 AT TIME STEP 19, STRESS PERIOD   1
 UBDSV3 SAVING "        RECHARGE" ON UNIT   9 AT TIME STEP 19, STRESS PERIOD   1

 HEAD WILL BE SAVED ON UNIT 5037 AT END OF TIME STEP   19, STRESS PERIOD    1

 DRAWDOWN WILL BE SAVED ON UNIT   38 AT END OF TIME STEP   19, STRESS PERIOD    1
1
  VOLUMETRIC BUDGET FOR ENTIRE MODEL AT END OF TIME STEP   19, STRESS PERIOD   1
  ------------------------------------------------------------------------------

     CUMULATIVE VOLUMES      L**3       RATES FOR THIS TIME STEP      L**3/T
     ------------------                 ------------------------

           IN:                                      IN:
           ---                                      ---
             STORAGE =     1669621.8750               STORAGE =       73461.5000
       CONSTANT HEAD =           0.0000         CONSTANT HEAD =           0.0000
       RIVER LEAKAGE =      174949.7812         RIVER LEAKAGE =        6758.1255
            RECHARGE =           0.0000              RECHARGE =           0.0000

            TOTAL IN =     1844571.6250              TOTAL IN =       80219.6250

          OUT:                                     OUT:
          ----                                     ----
             STORAGE =     1272675.5000               STORAGE =       50817.5703
       CONSTANT HEAD =           0.0000         CONSTANT HEAD =           0.0000
       RIVER LEAKAGE =      571997.5000         RIVER LEAKAGE =       29402.1094
            RECHARGE =           0.0000              RECHARGE =           0.0000

           TOTAL OUT =     1844673.0000             TOTAL OUT =       80219.6797

            IN - OUT =        -101.3750              IN - OUT =      -5.4688E-02

 PERCENT DISCREPANCY =          -0.01     PERCENT DISCREPANCY =          -0.00






         TIME SUMMARY AT END OF TIME STEP   19 IN STRESS PERIOD    1
                    SECONDS     MINUTES      HOURS       DAYS        YEARS
                    -----------------------------------------------------------
   TIME STEP LENGTH  86400.      1440.0      24.000      1.0000     2.73785E-03
 STRESS PERIOD TIME 1.64160E+06  27360.      456.00      19.000     5.20192E-02
         TOTAL TIME 1.64160E+06  27360.      456.00      19.000     5.20192E-02
1
 
 SOLVING FOR HEAD 
                                                   Max.-Head-Change                        Max.-Flux-Residual
  Residual-Control   Outer-Iter.   Inner-Iter.     Column Row Layer    Max.-Head-Change    Column Row Layer    Max.-Flux-Residual            L2-New               L2-Old           Solver-Max-Delh
          0                 1           2            25   13     1       0.2798835885E+01      30   16    1      -0.8492936594E+03      0.7063565782E+04      0.2815157664E+01      0.2798835885E+01
          0                 2           2            23   20     1       0.9523435902E+00      23   20    1       0.3897297607E+03      0.8042680323E+03      0.7063565782E+04      0.9523435902E+00
          0                 3           2            23   20     1      -0.8225927487E-01      23   20    1      -0.3902631446E+02      0.5297812998E+02      0.8042680323E+03     -0.8225927487E-01

    ------------------------------------------------
       NWT REQUIRED            3 OUTER ITERATIONS 
       AND A TOTAL OF          6 INNER ITERATIONS.
    ------------------------------------------------

 OUTPUT CONTROL FOR STRESS PERIOD    1   TIME STEP   20
    SAVE HEAD FOR ALL LAYERS
    SAVE DRAWDOWN FOR ALL LAYERS
    SAVE BUDGET
    PRINT BUDGET
 UBDSV1 SAVING "         STORAGE" ON UNIT   9 AT TIME STEP 20, STRESS PERIOD   1
 UBDSV2 SAVING "   CONSTANT HEAD" ON UNIT   9 AT TIME STEP 20, STRESS PERIOD   1
 UBDSV1 SAVING "FLOW RIGHT FACE " ON UNIT   9 AT TIME STEP 20, STRESS PERIOD   1
 UBDSV1 SAVING "FLOW FRONT FACE " ON UNIT   9 AT TIME STEP 20, STRESS PERIOD   1
 UBDSV4 SAVING "   RIVER LEAKAGE" ON UNIT   9 AT TIME STEP 20, STRESS PERIOD   1
 UBDSV3 SAVING "        RECHARGE" ON UNIT   9 AT TIME STEP 20, STRESS PERIOD   1

 HEAD WILL BE SAVED ON UNIT 5037 AT END OF TIME STEP   20, STRESS PERIOD    1

 DRAWDOWN WILL BE SAVED ON UNIT   38 AT END OF TIME STEP   20, STRESS PERIOD    1
1
  VOLUMETRIC BUDGET FOR ENTIRE MODEL AT END OF TIME STEP   20, STRESS PERIOD   1
  ------------------------------------------------------------------------------

     CUMULATIVE VOLUMES      L**3       RATES FOR THIS TIME STEP      L**3/T
     ------------------                 ------------------------

           IN:                                      IN:
           ---                                      ---
             STORAGE =     1750013.5000               STORAGE =       80391.6328
       CONSTANT HEAD =           0.0000         CONSTANT HEAD =           0.0000
       RIVER LEAKAGE =      178186.7344         RIVER LEAKAGE =        3236.9551
            RECHARGE =           0.0000              RECHARGE =           0.0000

            TOTAL IN =     1928200.2500              TOTAL IN =       83628.5859

          OUT:                                     OUT:
          ----                                     ----
             STORAGE =     1315280.1250               STORAGE =       42604.6719
       CONSTANT HEAD =           0.0000         CONSTANT HEAD =           0.0000
       RIVER LEAKAGE =      613007.8750         RIVER LEAKAGE =       41010.4062
            RECHARGE =           0.0000              RECHARGE =           0.0000

           TOTAL OUT =     1928288.0000             TOTAL OUT =       83615.0781

            IN - OUT =         -87.7500              IN - OUT =          13.5078

 PERCENT DISCREPANCY =          -0.00     PERCENT DISCREPANCY =           0.02






         TIME SUMMARY AT END OF TIME STEP   20 IN STRESS PERIOD    1
                    SECONDS     MINUTES      HOURS       DAYS        YEARS
                    -----------------------------------------------------------
   TIME STEP LENGTH  86400.      1440.0      24.000      1.0000     2.73785E-03
 STRESS PERIOD TIME 1.72800E+06  28800.      480.00      20.000     5.47570E-02
         TOTAL TIME 1.72800E+06  28800.      480.00      20.000     5.47570E-02
1
 
 SOLVING FOR HEAD 
                                                   Max.-Head-Change                        Max.-Flux-Residual
  Residual-Control   Outer-Iter.   Inner-Iter.     Column Row Layer    Max.-Head-Change    Column Row Layer    Max.-Flux-Residual            L2-New               L2-Old           Solver-Max-Delh
          0                 1           2            25   13     1       0.1608390482E+01      30   16    1      -0.8384183245E+03      0.6910307853E+04      0.5297812998E+02      0.1608390482E+01
          0                 2           2             4    4     1       0.1463671904E+01      13   11    1       0.3047150965E+03      0.7911728391E+03      0.6910307853E+04      0.1463671904E+01
          0                 3           2             4    4     1      -0.1264756066E+00      13   11    1      -0.3200627602E+02      0.5502783874E+02      0.7911728391E+03     -0.1264756066E+00
          0                 4           2             4    4     1      -0.6323540983E-02      13   11    1      -0.1600388608E+01      0.2758453927E+01      0.5502783874E+02     -0.6323540983E-02

    ------------------------------------------------
       NWT REQUIRED            4 OUTER ITERATIONS 
       AND A TOTAL OF          8 INNER ITERATIONS.
    ------------------------------------------------

 OUTPUT CONTROL FOR STRESS PERIOD    1   TIME STEP   21
    SAVE HEAD FOR ALL LAYERS
    SAVE DRAWDOWN FOR ALL LAYERS
    SAVE BUDGET
    PRINT BUDGET
 UBDSV1 SAVING "         STORAGE" ON UNIT   9 AT TIME STEP 21, STRESS PERIOD   1
 UBDSV2 SAVING "   CONSTANT HEAD" ON UNIT   9 AT TIME STEP 21, STRESS PERIOD   1
 UBDSV1 SAVING "FLOW RIGHT FACE " ON UNIT   9 AT TIME STEP 21, STRESS PERIOD   1
 UBDSV1 SAVING "FLOW FRONT FACE " ON UNIT   9 AT TIME STEP 21, STRESS PERIOD   1
 UBDSV4 SAVING "   RIVER LEAKAGE" ON UNIT   9 AT TIME STEP 21, STRESS PERIOD   1
 UBDSV3 SAVING "        RECHARGE" ON UNIT   9 AT TIME STEP 21, STRESS PERIOD   1

 HEAD WILL BE SAVED ON UNIT 5037 AT END OF TIME STEP   21, STRESS PERIOD    1

 DRAWDOWN WILL BE SAVED ON UNIT   38 AT END OF TIME STEP   21, STRESS PERIOD    1
1
  VOLUMETRIC BUDGET FOR ENTIRE MODEL AT END OF TIME STEP   21, STRESS PERIOD   1
  ------------------------------------------------------------------------------

     CUMULATIVE VOLUMES      L**3       RATES FOR THIS TIME STEP      L**3/T
     ------------------                 ------------------------

           IN:                                      IN:
           ---                                      ---
             STORAGE =     1821251.6250               STORAGE =       71238.1641
       CONSTANT HEAD =           0.0000         CONSTANT HEAD =           0.0000
       RIVER LEAKAGE =      184933.2812         RIVER LEAKAGE =        6746.5488
            RECHARGE =           0.0000              RECHARGE =           0.0000

            TOTAL IN =     2006184.8750              TOTAL IN =       77984.7109

          OUT:                                     OUT:
          ----                                     ----
             STORAGE =     1363913.0000               STORAGE =       48632.8828
       CONSTANT HEAD =           0.0000         CONSTANT HEAD =           0.0000
       RIVER LEAKAGE =      642359.7500         RIVER LEAKAGE =       29351.8594
            RECHARGE =           0.0000              RECHARGE =           0.0000

           TOTAL OUT =     2006272.7500             TOTAL OUT =       77984.7422

            IN - OUT =         -87.8750              IN - OUT =      -3.1250E-02

 PERCENT DISCREPANCY =          -0.00     PERCENT DISCREPANCY =          -0.00






         TIME SUMMARY AT END OF TIME STEP   21 IN STRESS PERIOD    1
                    SECONDS     MINUTES      HOURS       DAYS        YEARS
                    -----------------------------------------------------------
   TIME STEP LENGTH  86400.      1440.0      24.000      1.0000     2.73785E-03
 STRESS PERIOD TIME 1.81440E+06  30240.      504.00      21.000     5.74949E-02
         TOTAL TIME 1.81440E+06  30240.      504.00      21.000     5.74949E-02
1
 
 SOLVING FOR HEAD 
                                                   Max.-Head-Change                        Max.-Flux-Residual
  Residual-Control   Outer-Iter.   Inner-Iter.     Column Row Layer    Max.-Head-Change    Column Row Layer    Max.-Flux-Residual            L2-New               L2-Old           Solver-Max-Delh
          0                 1           2             4    4     1       0.2006868205E+01      30   16    1      -0.8271572410E+03      0.6838712424E+04      0.2758453927E+01      0.2006868205E+01
          0                 2           2             9    5     1       0.2435184727E+01      30    6    1       0.3481577824E+03      0.8057202594E+03      0.6838712424E+04      0.2435184727E+01
          0                 3           2             9    5     1      -0.2109541361E+00      30    6    1      -0.3484903709E+02      0.5656916914E+02      0.8057202594E+03     -0.2109541361E+00
          0                 4           2             9    5     1      -0.1054460251E-01      30    6    1      -0.1742490242E+01      0.2828231132E+01      0.5656916914E+02     -0.1054460251E-01

    ------------------------------------------------
       NWT REQUIRED            4 OUTER ITERATIONS 
       AND A TOTAL OF          8 INNER ITERATIONS.
    ------------------------------------------------

 OUTPUT CONTROL FOR STRESS PERIOD    1   TIME STEP   22
    SAVE HEAD FOR ALL LAYERS
    SAVE DRAWDOWN FOR ALL LAYERS
    SAVE BUDGET
    PRINT BUDGET
 UBDSV1 SAVING "         STORAGE" ON UNIT   9 AT TIME STEP 22, STRESS PERIOD   1
 UBDSV2 SAVING "   CONSTANT HEAD" ON UNIT   9 AT TIME STEP 22, STRESS PERIOD   1
 UBDSV1 SAVING "FLOW RIGHT FACE " ON UNIT   9 AT TIME STEP 22, STRESS PERIOD   1
 UBDSV1 SAVING "FLOW FRONT FACE " ON UNIT   9 AT TIME STEP 22, STRESS PERIOD   1
 UBDSV4 SAVING "   RIVER LEAKAGE" ON UNIT   9 AT TIME STEP 22, STRESS PERIOD   1
 UBDSV3 SAVING "        RECHARGE" ON UNIT   9 AT TIME STEP 22, STRESS PERIOD   1

 HEAD WILL BE SAVED ON UNIT 5037 AT END OF TIME STEP   22, STRESS PERIOD    1

 DRAWDOWN WILL BE SAVED ON UNIT   38 AT END OF TIME STEP   22, STRESS PERIOD    1
1
  VOLUMETRIC BUDGET FOR ENTIRE MODEL AT END OF TIME STEP   22, STRESS PERIOD   1
  ------------------------------------------------------------------------------

     CUMULATIVE VOLUMES      L**3       RATES FOR THIS TIME STEP      L**3/T
     ------------------                 ------------------------

           IN:                                      IN:
           ---                                      ---
             STORAGE =     1899352.8750               STORAGE =       78101.2578
       CONSTANT HEAD =           0.0000         CONSTANT HEAD =           0.0000
       RIVER LEAKAGE =      188156.7812         RIVER LEAKAGE =        3223.4985
            RECHARGE =           0.0000              RECHARGE =           0.0000

            TOTAL IN =     2087509.6250              TOTAL IN =       81324.7578

          OUT:                                     OUT:
          ----                                     ----
             STORAGE =     1404315.8750               STORAGE =       40402.8438
       CONSTANT HEAD =           0.0000         CONSTANT HEAD =           0.0000
       RIVER LEAKAGE =      683281.0000         RIVER LEAKAGE =       40921.2344
            RECHARGE =           0.0000              RECHARGE =           0.0000

           TOTAL OUT =     2087596.8750             TOTAL OUT =       81324.0781

            IN - OUT =         -87.2500              IN - OUT =           0.6797

 PERCENT DISCREPANCY =          -0.00     PERCENT DISCREPANCY =           0.00






         TIME SUMMARY AT END OF TIME STEP   22 IN STRESS PERIOD    1
                    SECONDS     MINUTES      HOURS       DAYS        YEARS
                    -----------------------------------------------------------
   TIME STEP LENGTH  86400.      1440.0      24.000      1.0000     2.73785E-03
 STRESS PERIOD TIME 1.90080E+06  31680.      528.00      22.000     6.02327E-02
         TOTAL TIME 1.90080E+06  31680.      528.00      22.000     6.02327E-02
1
 
 SOLVING FOR HEAD 
                                                   Max.-Head-Change                        Max.-Flux-Residual
  Residual-Control   Outer-Iter.   Inner-Iter.     Column Row Layer    Max.-Head-Change    Column Row Layer    Max.-Flux-Residual            L2-New               L2-Old           Solver-Max-Delh
          0                 1           2             9    5     1       0.9321734342E+01      30   16    1      -0.8167349525E+03      0.6675632701E+04      0.2828231132E+01      0.9321734342E+01
          0                 2           2            32   16     1       0.1260433650E+01      32   16    1       0.2653699354E+03      0.7162519399E+03      0.6675632701E+04      0.1260433650E+01
          0                 3           2            32   16     1      -0.1088936467E+00      32   16    1      -0.2656746301E+02      0.4349599205E+02      0.7162519399E+03     -0.1088936467E+00
          0                 4           2            32   16     1      -0.5444721514E-02      32   16    1      -0.1328369036E+01      0.2174520540E+01      0.4349599205E+02     -0.5444721514E-02

    ------------------------------------------------
       NWT REQUIRED            4 OUTER ITERATIONS 
       AND A TOTAL OF          8 INNER ITERATIONS.
    ------------------------------------------------

 OUTPUT CONTROL FOR STRESS PERIOD    1   TIME STEP   23
    SAVE HEAD FOR ALL LAYERS
    SAVE DRAWDOWN FOR ALL LAYERS
    SAVE BUDGET
    PRINT BUDGET
 UBDSV1 SAVING "         STORAGE" ON UNIT   9 AT TIME STEP 23, STRESS PERIOD   1
 UBDSV2 SAVING "   CONSTANT HEAD" ON UNIT   9 AT TIME STEP 23, STRESS PERIOD   1
 UBDSV1 SAVING "FLOW RIGHT FACE " ON UNIT   9 AT TIME STEP 23, STRESS PERIOD   1
 UBDSV1 SAVING "FLOW FRONT FACE " ON UNIT   9 AT TIME STEP 23, STRESS PERIOD   1
 UBDSV4 SAVING "   RIVER LEAKAGE" ON UNIT   9 AT TIME STEP 23, STRESS PERIOD   1
 UBDSV3 SAVING "        RECHARGE" ON UNIT   9 AT TIME STEP 23, STRESS PERIOD   1

 HEAD WILL BE SAVED ON UNIT 5037 AT END OF TIME STEP   23, STRESS PERIOD    1

 DRAWDOWN WILL BE SAVED ON UNIT   38 AT END OF TIME STEP   23, STRESS PERIOD    1
1
  VOLUMETRIC BUDGET FOR ENTIRE MODEL AT END OF TIME STEP   23, STRESS PERIOD   1
  ------------------------------------------------------------------------------

     CUMULATIVE VOLUMES      L**3       RATES FOR THIS TIME STEP      L**3/T
     ------------------                 ------------------------

           IN:                                      IN:
           ---                                      ---
             STORAGE =     1968009.1250               STORAGE =       68656.2266
       CONSTANT HEAD =           0.0000         CONSTANT HEAD =           0.0000
       RIVER LEAKAGE =      194841.0469         RIVER LEAKAGE =        6684.2646
            RECHARGE =           0.0000              RECHARGE =           0.0000

            TOTAL IN =     2162850.2500              TOTAL IN =       75340.4922

          OUT:                                     OUT:
          ----                                     ----
             STORAGE =     1450400.6250               STORAGE =       46084.8086
       CONSTANT HEAD =           0.0000         CONSTANT HEAD =           0.0000
       RIVER LEAKAGE =      712536.6875         RIVER LEAKAGE =       29255.7109
            RECHARGE =           0.0000              RECHARGE =           0.0000

           TOTAL OUT =     2162937.2500             TOTAL OUT =       75340.5156

            IN - OUT =         -87.0000              IN - OUT =      -2.3438E-02

 PERCENT DISCREPANCY =          -0.00     PERCENT DISCREPANCY =          -0.00






         TIME SUMMARY AT END OF TIME STEP   23 IN STRESS PERIOD    1
                    SECONDS     MINUTES      HOURS       DAYS        YEARS
                    -----------------------------------------------------------
   TIME STEP LENGTH  86400.      1440.0      24.000      1.0000     2.73785E-03
 STRESS PERIOD TIME 1.98720E+06  33120.      552.00      23.000     6.29706E-02
         TOTAL TIME 1.98720E+06  33120.      552.00      23.000     6.29706E-02
1
 
 SOLVING FOR HEAD 
                                                   Max.-Head-Change                        Max.-Flux-Residual
  Residual-Control   Outer-Iter.   Inner-Iter.     Column Row Layer    Max.-Head-Change    Column Row Layer    Max.-Flux-Residual            L2-New               L2-Old           Solver-Max-Delh
          0                 1           2            16    7     1       0.7279879894E+01      39   16    1      -0.8066785551E+03      0.6594858418E+04      0.2174520540E+01      0.7279879894E+01
          0                 2           2            26    4     1       0.2147611258E+01      26    4    1       0.3975200842E+03      0.7676286585E+03      0.6594858418E+04      0.2147611258E+01
          0                 3           2            26    4     1      -0.1861360485E+00      26    4    1      -0.4088989554E+02      0.5368043856E+02      0.7676286585E+03     -0.1861360485E+00
          0                 4           2            26    4     1      -0.9306515059E-02      26    4    1      -0.2044418237E+01      0.2683736745E+01      0.5368043856E+02     -0.9306515059E-02

    ------------------------------------------------
       NWT REQUIRED            4 OUTER ITERATIONS 
       AND A TOTAL OF          8 INNER ITERATIONS.
    ------------------------------------------------

 OUTPUT CONTROL FOR STRESS PERIOD    1   TIME STEP   24
    SAVE HEAD FOR ALL LAYERS
    SAVE DRAWDOWN FOR ALL LAYERS
    SAVE BUDGET
    PRINT BUDGET
 UBDSV1 SAVING "         STORAGE" ON UNIT   9 AT TIME STEP 24, STRESS PERIOD   1
 UBDSV2 SAVING "   CONSTANT HEAD" ON UNIT   9 AT TIME STEP 24, STRESS PERIOD   1
 UBDSV1 SAVING "FLOW RIGHT FACE " ON UNIT   9 AT TIME STEP 24, STRESS PERIOD   1
 UBDSV1 SAVING "FLOW FRONT FACE " ON UNIT   9 AT TIME STEP 24, STRESS PERIOD   1
 UBDSV4 SAVING "   RIVER LEAKAGE" ON UNIT   9 AT TIME STEP 24, STRESS PERIOD   1
 UBDSV3 SAVING "        RECHARGE" ON UNIT   9 AT TIME STEP 24, STRESS PERIOD   1

 HEAD WILL BE SAVED ON UNIT 5037 AT END OF TIME STEP   24, STRESS PERIOD    1

 DRAWDOWN WILL BE SAVED ON UNIT   38 AT END OF TIME STEP   24, STRESS PERIOD    1
1
  VOLUMETRIC BUDGET FOR ENTIRE MODEL AT END OF TIME STEP   24, STRESS PERIOD   1
  ------------------------------------------------------------------------------

     CUMULATIVE VOLUMES      L**3       RATES FOR THIS TIME STEP      L**3/T
     ------------------                 ------------------------

           IN:                                      IN:
           ---                                      ---
             STORAGE =     2043455.3750               STORAGE =       75446.2891
       CONSTANT HEAD =           0.0000         CONSTANT HEAD =           0.0000
       RIVER LEAKAGE =      198044.4531         RIVER LEAKAGE =        3203.4033
            RECHARGE =           0.0000              RECHARGE =           0.0000

            TOTAL IN =     2241499.7500              TOTAL IN =       78649.6953

          OUT:                                     OUT:
          ----                                     ----
             STORAGE =     1488148.6250               STORAGE =       37747.9531
       CONSTANT HEAD =           0.0000         CONSTANT HEAD =           0.0000
       RIVER LEAKAGE =      753437.7500         RIVER LEAKAGE =       40901.0312
            RECHARGE =           0.0000              RECHARGE =           0.0000

           TOTAL OUT =     2241586.5000             TOTAL OUT =       78648.9844

            IN - OUT =         -86.7500              IN - OUT =           0.7109

 PERCENT DISCREPANCY =          -0.00     PERCENT DISCREPANCY =           0.00






         TIME SUMMARY AT END OF TIME STEP   24 IN STRESS PERIOD    1
                    SECONDS     MINUTES      HOURS       DAYS        YEARS
                    -----------------------------------------------------------
   TIME STEP LENGTH  86400.      1440.0      24.000      1.0000     2.73785E-03
 STRESS PERIOD TIME 2.07360E+06  34560.      576.00      24.000     6.57084E-02
         TOTAL TIME 2.07360E+06  34560.      576.00      24.000     6.57084E-02
1
 
 SOLVING FOR HEAD 
                                                   Max.-Head-Change                        Max.-Flux-Residual
  Residual-Control   Outer-Iter.   Inner-Iter.     Column Row Layer    Max.-Head-Change    Column Row Layer    Max.-Flux-Residual            L2-New               L2-Old           Solver-Max-Delh
          0                 1           2            16    1     1       0.5134107492E+01      39   16    1      -0.7982567069E+03      0.6442438022E+04      0.2683736745E+01      0.5134107492E+01
          0                 2           2            24    9     1       0.1045777676E+01      24    9    1       0.2392601968E+03      0.7126122002E+03      0.6442438022E+04      0.1045777676E+01
          0                 3           2            24    9     1      -0.9036333819E-01      27   16    1       0.6329662413E+03      0.6346518644E+03      0.7126122002E+03     -0.9036333819E-01
          0                 4           2            27   16     1       0.9049657847E-02      27   16    1       0.1123247349E+03      0.1123488572E+03      0.6346518644E+03      0.9049657847E-02

    ------------------------------------------------
       NWT REQUIRED            4 OUTER ITERATIONS 
       AND A TOTAL OF          8 INNER ITERATIONS.
    ------------------------------------------------

 OUTPUT CONTROL FOR STRESS PERIOD    1   TIME STEP   25
    SAVE HEAD FOR ALL LAYERS
    SAVE DRAWDOWN FOR ALL LAYERS
    SAVE BUDGET
    PRINT BUDGET
 UBDSV1 SAVING "         STORAGE" ON UNIT   9 AT TIME STEP 25, STRESS PERIOD   1
 UBDSV2 SAVING "   CONSTANT HEAD" ON UNIT   9 AT TIME STEP 25, STRESS PERIOD   1
 UBDSV1 SAVING "FLOW RIGHT FACE " ON UNIT   9 AT TIME STEP 25, STRESS PERIOD   1
 UBDSV1 SAVING "FLOW FRONT FACE " ON UNIT   9 AT TIME STEP 25, STRESS PERIOD   1
 UBDSV4 SAVING "   RIVER LEAKAGE" ON UNIT   9 AT TIME STEP 25, STRESS PERIOD   1
 UBDSV3 SAVING "        RECHARGE" ON UNIT   9 AT TIME STEP 25, STRESS PERIOD   1

 HEAD WILL BE SAVED ON UNIT 5037 AT END OF TIME STEP   25, STRESS PERIOD    1

 DRAWDOWN WILL BE SAVED ON UNIT   38 AT END OF TIME STEP   25, STRESS PERIOD    1
1
  VOLUMETRIC BUDGET FOR ENTIRE MODEL AT END OF TIME STEP   25, STRESS PERIOD   1
  ------------------------------------------------------------------------------

     CUMULATIVE VOLUMES      L**3       RATES FOR THIS TIME STEP      L**3/T
     ------------------                 ------------------------

           IN:                                      IN:
           ---                                      ---
             STORAGE =     2109684.2500               STORAGE =       66228.8516
       CONSTANT HEAD =           0.0000         CONSTANT HEAD =           0.0000
       RIVER LEAKAGE =      204676.7812         RIVER LEAKAGE =        6632.3228
            RECHARGE =           0.0000              RECHARGE =           0.0000

            TOTAL IN =     2314361.0000              TOTAL IN =       72861.1719

          OUT:                                     OUT:
          ----                                     ----
             STORAGE =     1531782.6250               STORAGE =       43633.9766
       CONSTANT HEAD =           0.0000         CONSTANT HEAD =           0.0000
       RIVER LEAKAGE =      782645.1875         RIVER LEAKAGE =       29207.4336
            RECHARGE =           0.0000              RECHARGE =           0.0000

           TOTAL OUT =     2314427.7500             TOTAL OUT =       72841.4062

            IN - OUT =         -66.7500              IN - OUT =          19.7656

 PERCENT DISCREPANCY =          -0.00     PERCENT DISCREPANCY =           0.03






         TIME SUMMARY AT END OF TIME STEP   25 IN STRESS PERIOD    1
                    SECONDS     MINUTES      HOURS       DAYS        YEARS
                    -----------------------------------------------------------
   TIME STEP LENGTH  86400.      1440.0      24.000      1.0000     2.73785E-03
 STRESS PERIOD TIME 2.16000E+06  36000.      600.00      25.000     6.84463E-02
         TOTAL TIME 2.16000E+06  36000.      600.00      25.000     6.84463E-02
1
 
 SOLVING FOR HEAD 
                                                   Max.-Head-Change                        Max.-Flux-Residual
  Residual-Control   Outer-Iter.   Inner-Iter.     Column Row Layer    Max.-Head-Change    Column Row Layer    Max.-Flux-Residual            L2-New               L2-Old           Solver-Max-Delh
          0                 1           2            26    8     1       0.3469159371E+01      39   16    1      -0.7895019810E+03      0.6382920404E+04      0.1993615432E+02      0.3469159371E+01
          0                 2           2            27   16     1       0.1666817863E+01      27   16    1       0.3089913945E+03      0.7120102883E+03      0.6382920404E+04      0.1666817863E+01
          0                 3           2            27   16     1      -0.1440235008E+00      27   16    1      -0.3096763129E+02      0.4647373211E+02      0.7120102883E+03     -0.1440235008E+00
          0                 4           2            27   16     1      -0.7200891316E-02      27   16    1      -0.1548311247E+01      0.2323396755E+01      0.4647373211E+02     -0.7200891316E-02

    ------------------------------------------------
       NWT REQUIRED            4 OUTER ITERATIONS 
       AND A TOTAL OF          8 INNER ITERATIONS.
    ------------------------------------------------

 OUTPUT CONTROL FOR STRESS PERIOD    1   TIME STEP   26
    SAVE HEAD FOR ALL LAYERS
    SAVE DRAWDOWN FOR ALL LAYERS
    SAVE BUDGET
    PRINT BUDGET
 UBDSV1 SAVING "         STORAGE" ON UNIT   9 AT TIME STEP 26, STRESS PERIOD   1
 UBDSV2 SAVING "   CONSTANT HEAD" ON UNIT   9 AT TIME STEP 26, STRESS PERIOD   1
 UBDSV1 SAVING "FLOW RIGHT FACE " ON UNIT   9 AT TIME STEP 26, STRESS PERIOD   1
 UBDSV1 SAVING "FLOW FRONT FACE " ON UNIT   9 AT TIME STEP 26, STRESS PERIOD   1
 UBDSV4 SAVING "   RIVER LEAKAGE" ON UNIT   9 AT TIME STEP 26, STRESS PERIOD   1
 UBDSV3 SAVING "        RECHARGE" ON UNIT   9 AT TIME STEP 26, STRESS PERIOD   1

 HEAD WILL BE SAVED ON UNIT 5037 AT END OF TIME STEP   26, STRESS PERIOD    1

 DRAWDOWN WILL BE SAVED ON UNIT   38 AT END OF TIME STEP   26, STRESS PERIOD    1
1
  VOLUMETRIC BUDGET FOR ENTIRE MODEL AT END OF TIME STEP   26, STRESS PERIOD   1
  ------------------------------------------------------------------------------

     CUMULATIVE VOLUMES      L**3       RATES FOR THIS TIME STEP      L**3/T
     ------------------                 ------------------------

           IN:                                      IN:
           ---                                      ---
             STORAGE =     2182841.5000               STORAGE =       73157.3750
       CONSTANT HEAD =           0.0000         CONSTANT HEAD =           0.0000
       RIVER LEAKAGE =      207875.3750         RIVER LEAKAGE =        3198.5981
            RECHARGE =           0.0000              RECHARGE =           0.0000

            TOTAL IN =     2390717.0000              TOTAL IN =       76355.9766

          OUT:                                     OUT:
          ----                                     ----
             STORAGE =     1567266.8750               STORAGE =       35484.2930
       CONSTANT HEAD =           0.0000         CONSTANT HEAD =           0.0000
       RIVER LEAKAGE =      823516.1875         RIVER LEAKAGE =       40870.9727
            RECHARGE =           0.0000              RECHARGE =           0.0000

           TOTAL OUT =     2390783.0000             TOTAL OUT =       76355.2656

            IN - OUT =         -66.0000              IN - OUT =           0.7109

 PERCENT DISCREPANCY =          -0.00     PERCENT DISCREPANCY =           0.00






         TIME SUMMARY AT END OF TIME STEP   26 IN STRESS PERIOD    1
                    SECONDS     MINUTES      HOURS       DAYS        YEARS
                    -----------------------------------------------------------
   TIME STEP LENGTH  86400.      1440.0      24.000      1.0000     2.73785E-03
 STRESS PERIOD TIME 2.24640E+06  37440.      624.00      26.000     7.11841E-02
         TOTAL TIME 2.24640E+06  37440.      624.00      26.000     7.11841E-02
1
 
 SOLVING FOR HEAD 
                                                   Max.-Head-Change                        Max.-Flux-Residual
  Residual-Control   Outer-Iter.   Inner-Iter.     Column Row Layer    Max.-Head-Change    Column Row Layer    Max.-Flux-Residual            L2-New               L2-Old           Solver-Max-Delh
          0                 1           2             6    4     1       0.2198614908E+01      39   16    1      -0.7813371470E+03      0.6242264610E+04      0.2323396755E+01      0.2198614908E+01
          0                 2           2            36    9     1       0.6875911074E+00      36    9    1       0.1636316442E+03      0.6442329214E+03      0.6242264610E+04      0.6875911074E+00
          0                 3           2            36    9     1      -0.5940278628E-01      36    9    1      -0.1640865878E+02      0.3557275875E+02      0.6442329214E+03     -0.5940278628E-01

    ------------------------------------------------
       NWT REQUIRED            3 OUTER ITERATIONS 
       AND A TOTAL OF          6 INNER ITERATIONS.
    ------------------------------------------------

 OUTPUT CONTROL FOR STRESS PERIOD    1   TIME STEP   27
    SAVE HEAD FOR ALL LAYERS
    SAVE DRAWDOWN FOR ALL LAYERS
    SAVE BUDGET
    PRINT BUDGET
 UBDSV1 SAVING "         STORAGE" ON UNIT   9 AT TIME STEP 27, STRESS PERIOD   1
 UBDSV2 SAVING "   CONSTANT HEAD" ON UNIT   9 AT TIME STEP 27, STRESS PERIOD   1
 UBDSV1 SAVING "FLOW RIGHT FACE " ON UNIT   9 AT TIME STEP 27, STRESS PERIOD   1
 UBDSV1 SAVING "FLOW FRONT FACE " ON UNIT   9 AT TIME STEP 27, STRESS PERIOD   1
 UBDSV4 SAVING "   RIVER LEAKAGE" ON UNIT   9 AT TIME STEP 27, STRESS PERIOD   1
 UBDSV3 SAVING "        RECHARGE" ON UNIT   9 AT TIME STEP 27, STRESS PERIOD   1

 HEAD WILL BE SAVED ON UNIT 5037 AT END OF TIME STEP   27, STRESS PERIOD    1

 DRAWDOWN WILL BE SAVED ON UNIT   38 AT END OF TIME STEP   27, STRESS PERIOD    1
1
  VOLUMETRIC BUDGET FOR ENTIRE MODEL AT END OF TIME STEP   27, STRESS PERIOD   1
  ------------------------------------------------------------------------------

     CUMULATIVE VOLUMES      L**3       RATES FOR THIS TIME STEP      L**3/T
     ------------------                 ------------------------

           IN:                                      IN:
           ---                                      ---
             STORAGE =     2246904.7500               STORAGE =       64063.2891
       CONSTANT HEAD =           0.0000         CONSTANT HEAD =           0.0000
       RIVER LEAKAGE =      214467.7188         RIVER LEAKAGE =        6592.3472
            RECHARGE =           0.0000              RECHARGE =           0.0000

            TOTAL IN =     2461372.5000              TOTAL IN =       70655.6328

          OUT:                                     OUT:
          ----                                     ----
             STORAGE =     1608797.7500               STORAGE =       41530.8828
       CONSTANT HEAD =           0.0000         CONSTANT HEAD =           0.0000
       RIVER LEAKAGE =      852641.1875         RIVER LEAKAGE =       29125.0098
            RECHARGE =           0.0000              RECHARGE =           0.0000

           TOTAL OUT =     2461439.0000             TOTAL OUT =       70655.8906

            IN - OUT =         -66.5000              IN - OUT =          -0.2578

 PERCENT DISCREPANCY =          -0.00     PERCENT DISCREPANCY =          -0.00






         TIME SUMMARY AT END OF TIME STEP   27 IN STRESS PERIOD    1
                    SECONDS     MINUTES      HOURS       DAYS        YEARS
                    -----------------------------------------------------------
   TIME STEP LENGTH  86400.      1440.0      24.000      1.0000     2.73785E-03
 STRESS PERIOD TIME 2.33280E+06  38880.      648.00      27.000     7.39220E-02
         TOTAL TIME 2.33280E+06  38880.      648.00      27.000     7.39220E-02
1
 
 SOLVING FOR HEAD 
                                                   Max.-Head-Change                        Max.-Flux-Residual
  Residual-Control   Outer-Iter.   Inner-Iter.     Column Row Layer    Max.-Head-Change    Column Row Layer    Max.-Flux-Residual            L2-New               L2-Old           Solver-Max-Delh
          0                 1           2             6    4     1       0.1358036438E+01      39   16    1      -0.7727939731E+03      0.5591077482E+04      0.3557275875E+02      0.1358036438E+01
          0                 2           2            37   15     1       0.1810349669E+01      23    3    1       0.2578523992E+03      0.6794339592E+03      0.5591077482E+04      0.1810349669E+01
          0                 3           2            23    3     1      -0.1336958575E+00      23    3    1      -0.2581508475E+02      0.4570115654E+02      0.6794339592E+03     -0.1336958575E+00
          0                 4           2            23    3     1      -0.6684696843E-02      23    3    1      -0.1290725021E+01      0.2284842043E+01      0.4570115654E+02     -0.6684696843E-02

    ------------------------------------------------
       NWT REQUIRED            4 OUTER ITERATIONS 
       AND A TOTAL OF          8 INNER ITERATIONS.
    ------------------------------------------------

 OUTPUT CONTROL FOR STRESS PERIOD    1   TIME STEP   28
    SAVE HEAD FOR ALL LAYERS
    SAVE DRAWDOWN FOR ALL LAYERS
    SAVE BUDGET
    PRINT BUDGET
 UBDSV1 SAVING "         STORAGE" ON UNIT   9 AT TIME STEP 28, STRESS PERIOD   1
 UBDSV2 SAVING "   CONSTANT HEAD" ON UNIT   9 AT TIME STEP 28, STRESS PERIOD   1
 UBDSV1 SAVING "FLOW RIGHT FACE " ON UNIT   9 AT TIME STEP 28, STRESS PERIOD   1
 UBDSV1 SAVING "FLOW FRONT FACE " ON UNIT   9 AT TIME STEP 28, STRESS PERIOD   1
 UBDSV4 SAVING "   RIVER LEAKAGE" ON UNIT   9 AT TIME STEP 28, STRESS PERIOD   1
 UBDSV3 SAVING "        RECHARGE" ON UNIT   9 AT TIME STEP 28, STRESS PERIOD   1

 HEAD WILL BE SAVED ON UNIT 5037 AT END OF TIME STEP   28, STRESS PERIOD    1

 DRAWDOWN WILL BE SAVED ON UNIT   38 AT END OF TIME STEP   28, STRESS PERIOD    1
1
  VOLUMETRIC BUDGET FOR ENTIRE MODEL AT END OF TIME STEP   28, STRESS PERIOD   1
  ------------------------------------------------------------------------------

     CUMULATIVE VOLUMES      L**3       RATES FOR THIS TIME STEP      L**3/T
     ------------------                 ------------------------

           IN:                                      IN:
           ---                                      ---
             STORAGE =     2309979.0000               STORAGE =       63074.1367
       CONSTANT HEAD =           0.0000         CONSTANT HEAD =           0.0000
       RIVER LEAKAGE =      220239.1406         RIVER LEAKAGE =        5771.4219
            RECHARGE =           0.0000              RECHARGE =           0.0000

            TOTAL IN =     2530218.2500              TOTAL IN =       68845.5625

          OUT:                                     OUT:
          ----                                     ----
             STORAGE =     1644302.5000               STORAGE =       35504.7070
       CONSTANT HEAD =           0.0000         CONSTANT HEAD =           0.0000
       RIVER LEAKAGE =      885981.8125         RIVER LEAKAGE =       33340.6484
            RECHARGE =           0.0000              RECHARGE =           0.0000

           TOTAL OUT =     2530284.2500             TOTAL OUT =       68845.3594

            IN - OUT =         -66.0000              IN - OUT =           0.2031

 PERCENT DISCREPANCY =          -0.00     PERCENT DISCREPANCY =           0.00






         TIME SUMMARY AT END OF TIME STEP   28 IN STRESS PERIOD    1
                    SECONDS     MINUTES      HOURS       DAYS        YEARS
                    -----------------------------------------------------------
   TIME STEP LENGTH  86400.      1440.0      24.000      1.0000     2.73785E-03
 STRESS PERIOD TIME 2.41920E+06  40320.      672.00      28.000     7.66598E-02
         TOTAL TIME 2.41920E+06  40320.      672.00      28.000     7.66598E-02
1
 
 SOLVING FOR HEAD 
                                                   Max.-Head-Change                        Max.-Flux-Residual
  Residual-Control   Outer-Iter.   Inner-Iter.     Column Row Layer    Max.-Head-Change    Column Row Layer    Max.-Flux-Residual            L2-New               L2-Old           Solver-Max-Delh
          0                 1           2            37   15     1       0.2240755346E+01      39   16    1      -0.7646032000E+03      0.6328340603E+04      0.2284842043E+01      0.2240755346E+01
          0                 2           2            31    7     1       0.2115350614E+01      22   17    1       0.3041868141E+03      0.8158151221E+03      0.6328340603E+04      0.2115350614E+01
          0                 3           2            31    7     1      -0.1828553816E+00      13   15    1      -0.2550876555E+02      0.5963358599E+02      0.8158151221E+03     -0.1828553816E+00
          0                 4           2            31    7     1      -0.9142743695E-02      13   15    1      -0.1275423637E+01      0.2980550178E+01      0.5963358599E+02     -0.9142743695E-02

    ------------------------------------------------
       NWT REQUIRED            4 OUTER ITERATIONS 
       AND A TOTAL OF          8 INNER ITERATIONS.
    ------------------------------------------------

 OUTPUT CONTROL FOR STRESS PERIOD    1   TIME STEP   29
    SAVE HEAD FOR ALL LAYERS
    SAVE DRAWDOWN FOR ALL LAYERS
    SAVE BUDGET
    PRINT BUDGET
 UBDSV1 SAVING "         STORAGE" ON UNIT   9 AT TIME STEP 29, STRESS PERIOD   1
 UBDSV2 SAVING "   CONSTANT HEAD" ON UNIT   9 AT TIME STEP 29, STRESS PERIOD   1
 UBDSV1 SAVING "FLOW RIGHT FACE " ON UNIT   9 AT TIME STEP 29, STRESS PERIOD   1
 UBDSV1 SAVING "FLOW FRONT FACE " ON UNIT   9 AT TIME STEP 29, STRESS PERIOD   1
 UBDSV4 SAVING "   RIVER LEAKAGE" ON UNIT   9 AT TIME STEP 29, STRESS PERIOD   1
 UBDSV3 SAVING "        RECHARGE" ON UNIT   9 AT TIME STEP 29, STRESS PERIOD   1

 HEAD WILL BE SAVED ON UNIT 5037 AT END OF TIME STEP   29, STRESS PERIOD    1

 DRAWDOWN WILL BE SAVED ON UNIT   38 AT END OF TIME STEP   29, STRESS PERIOD    1
1
  VOLUMETRIC BUDGET FOR ENTIRE MODEL AT END OF TIME STEP   29, STRESS PERIOD   1
  ------------------------------------------------------------------------------

     CUMULATIVE VOLUMES      L**3       RATES FOR THIS TIME STEP      L**3/T
     ------------------                 ------------------------

           IN:                                      IN:
           ---                                      ---
             STORAGE =     2381205.2500               STORAGE =       71226.1875
       CONSTANT HEAD =           0.0000         CONSTANT HEAD =           0.0000
       RIVER LEAKAGE =      223359.2812         RIVER LEAKAGE =        3120.1431
            RECHARGE =           0.0000              RECHARGE =           0.0000

            TOTAL IN =     2604564.5000              TOTAL IN =       74346.3281

          OUT:                                     OUT:
          ----                                     ----
             STORAGE =     1676733.7500               STORAGE =       32431.2012
       CONSTANT HEAD =           0.0000         CONSTANT HEAD =           0.0000
       RIVER LEAKAGE =      927896.3125         RIVER LEAKAGE =       41914.4883
            RECHARGE =           0.0000              RECHARGE =           0.0000

           TOTAL OUT =     2604630.0000             TOTAL OUT =       74345.6875

            IN - OUT =         -65.5000              IN - OUT =           0.6406

 PERCENT DISCREPANCY =          -0.00     PERCENT DISCREPANCY =           0.00






         TIME SUMMARY AT END OF TIME STEP   29 IN STRESS PERIOD    1
                    SECONDS     MINUTES      HOURS       DAYS        YEARS
                    -----------------------------------------------------------
   TIME STEP LENGTH  86400.      1440.0      24.000      1.0000     2.73785E-03
 STRESS PERIOD TIME 2.50560E+06  41760.      696.00      29.000     7.93977E-02
         TOTAL TIME 2.50560E+06  41760.      696.00      29.000     7.93977E-02
1
 
 SOLVING FOR HEAD 
                                                   Max.-Head-Change                        Max.-Flux-Residual
  Residual-Control   Outer-Iter.   Inner-Iter.     Column Row Layer    Max.-Head-Change    Column Row Layer    Max.-Flux-Residual            L2-New               L2-Old           Solver-Max-Delh
          0                 1           2            25    8     1       0.2305217807E+01      39   16    1      -0.7568453507E+03      0.5935947180E+04      0.2980550178E+01      0.2305217807E+01
          0                 2           2            10   12     1       0.1445403331E+01      10   12    1       0.2537112344E+03      0.6917398794E+03      0.5935947180E+04      0.1445403331E+01
          1                 2           0            10   12     1       0.1011782315E+01      20   12    1       0.2169622216E+04      0.2170147553E+04      0.6917398794E+03      0.1445403331E+01
          2                 2           0            10   12     1       0.7082476082E+00      20   12    1       0.1501263198E+04      0.1516437650E+04      0.2170147553E+04      0.1445403331E+01
          3                 2           0            10   12     1       0.4957733173E+00      20   12    1       0.1033397228E+04      0.1093053543E+04      0.1516437650E+04      0.1445403331E+01
          4                 2           0            10   12     1       0.3470413162E+00      20   12    1       0.7058838697E+03      0.8406364423E+03      0.1093053543E+04      0.1445403331E+01
          0                 3           2            10   12     1       0.1063639448E+01      20   12    1       0.4766210016E+03      0.7104887182E+03      0.8406364423E+03      0.1063639448E+01
          0                 4           2            10   12     1      -0.9188031664E-01      20   12    1       0.8462279673E+02      0.9187820694E+02      0.7104887182E+03     -0.9188031664E-01

    ------------------------------------------------
       NWT REQUIRED            4 OUTER ITERATIONS 
       AND A TOTAL OF          8 INNER ITERATIONS.
    ------------------------------------------------

 OUTPUT CONTROL FOR STRESS PERIOD    1   TIME STEP   30
    SAVE HEAD FOR ALL LAYERS
    SAVE DRAWDOWN FOR ALL LAYERS
    SAVE BUDGET
    PRINT BUDGET
 UBDSV1 SAVING "         STORAGE" ON UNIT   9 AT TIME STEP 30, STRESS PERIOD   1
 UBDSV2 SAVING "   CONSTANT HEAD" ON UNIT   9 AT TIME STEP 30, STRESS PERIOD   1
 UBDSV1 SAVING "FLOW RIGHT FACE " ON UNIT   9 AT TIME STEP 30, STRESS PERIOD   1
 UBDSV1 SAVING "FLOW FRONT FACE " ON UNIT   9 AT TIME STEP 30, STRESS PERIOD   1
 UBDSV4 SAVING "   RIVER LEAKAGE" ON UNIT   9 AT TIME STEP 30, STRESS PERIOD   1
 UBDSV3 SAVING "        RECHARGE" ON UNIT   9 AT TIME STEP 30, STRESS PERIOD   1

 HEAD WILL BE SAVED ON UNIT 5037 AT END OF TIME STEP   30, STRESS PERIOD    1

 DRAWDOWN WILL BE SAVED ON UNIT   38 AT END OF TIME STEP   30, STRESS PERIOD    1
1
  VOLUMETRIC BUDGET FOR ENTIRE MODEL AT END OF TIME STEP   30, STRESS PERIOD   1
  ------------------------------------------------------------------------------

     CUMULATIVE VOLUMES      L**3       RATES FOR THIS TIME STEP      L**3/T
     ------------------                 ------------------------

           IN:                                      IN:
           ---                                      ---
             STORAGE =     2442082.0000               STORAGE =       60876.7148
       CONSTANT HEAD =           0.0000         CONSTANT HEAD =           0.0000
       RIVER LEAKAGE =      229897.7344         RIVER LEAKAGE =        6538.4556
            RECHARGE =           0.0000              RECHARGE =           0.0000

            TOTAL IN =     2671979.7500              TOTAL IN =       67415.1719

          OUT:                                     OUT:
          ----                                     ----
             STORAGE =     1714885.8750               STORAGE =       38152.1484
       CONSTANT HEAD =           0.0000         CONSTANT HEAD =           0.0000
       RIVER LEAKAGE =      957144.8750         RIVER LEAKAGE =       29248.5664
            RECHARGE =           0.0000              RECHARGE =           0.0000

           TOTAL OUT =     2672030.7500             TOTAL OUT =       67400.7188

            IN - OUT =         -51.0000              IN - OUT =          14.4531

 PERCENT DISCREPANCY =          -0.00     PERCENT DISCREPANCY =           0.02






         TIME SUMMARY AT END OF TIME STEP   30 IN STRESS PERIOD    1
                    SECONDS     MINUTES      HOURS       DAYS        YEARS
                    -----------------------------------------------------------
   TIME STEP LENGTH  86400.      1440.0      24.000      1.0000     2.73785E-03
 STRESS PERIOD TIME 2.59200E+06  43200.      720.00      30.000     8.21355E-02
         TOTAL TIME 2.59200E+06  43200.      720.00      30.000     8.21355E-02
1
 
 SOLVING FOR HEAD 
                                                   Max.-Head-Change                        Max.-Flux-Residual
  Residual-Control   Outer-Iter.   Inner-Iter.     Column Row Layer    Max.-Head-Change    Column Row Layer    Max.-Flux-Residual            L2-New               L2-Old           Solver-Max-Delh
          0                 1           2            26   16     1       0.2116278668E+01      39   16    1      -0.7486939550E+03      0.5941502348E+04      0.9187820694E+02      0.2116278668E+01
          0                 2           2            15    1     1       0.2958611117E+01      20   12    1       0.4663178755E+03      0.7849875956E+03      0.5941502348E+04      0.2958611117E+01
          0                 3           2            15    1     1      -0.2560354465E+00      20   12    1      -0.4385596434E+02      0.6272383473E+02      0.7849875956E+03     -0.2560354465E+00
          0                 4           2            15    1     1      -0.1279982648E-01      20   12    1      -0.2192469427E+01      0.3174231949E+01      0.6272383473E+02     -0.1279982648E-01

    ------------------------------------------------
       NWT REQUIRED            4 OUTER ITERATIONS 
       AND A TOTAL OF          8 INNER ITERATIONS.
    ------------------------------------------------

 OUTPUT CONTROL FOR STRESS PERIOD    1   TIME STEP   31
    SAVE HEAD FOR ALL LAYERS
    SAVE DRAWDOWN FOR ALL LAYERS
    SAVE BUDGET
    PRINT BUDGET
 UBDSV1 SAVING "         STORAGE" ON UNIT   9 AT TIME STEP 31, STRESS PERIOD   1
 UBDSV2 SAVING "   CONSTANT HEAD" ON UNIT   9 AT TIME STEP 31, STRESS PERIOD   1
 UBDSV1 SAVING "FLOW RIGHT FACE " ON UNIT   9 AT TIME STEP 31, STRESS PERIOD   1
 UBDSV1 SAVING "FLOW FRONT FACE " ON UNIT   9 AT TIME STEP 31, STRESS PERIOD   1
 UBDSV4 SAVING "   RIVER LEAKAGE" ON UNIT   9 AT TIME STEP 31, STRESS PERIOD   1
 UBDSV3 SAVING "        RECHARGE" ON UNIT   9 AT TIME STEP 31, STRESS PERIOD   1

 HEAD WILL BE SAVED ON UNIT 5037 AT END OF TIME STEP   31, STRESS PERIOD    1

 DRAWDOWN WILL BE SAVED ON UNIT   38 AT END OF TIME STEP   31, STRESS PERIOD    1
1
  VOLUMETRIC BUDGET FOR ENTIRE MODEL AT END OF TIME STEP   31, STRESS PERIOD   1
  ------------------------------------------------------------------------------

     CUMULATIVE VOLUMES      L**3       RATES FOR THIS TIME STEP      L**3/T
     ------------------                 ------------------------

           IN:                                      IN:
           ---                                      ---
             STORAGE =     2509742.5000               STORAGE =       67660.6094
       CONSTANT HEAD =           0.0000         CONSTANT HEAD =           0.0000
       RIVER LEAKAGE =      233123.3594         RIVER LEAKAGE =        3225.6277
            RECHARGE =           0.0000              RECHARGE =           0.0000

            TOTAL IN =     2742865.7500              TOTAL IN =       70886.2344

          OUT:                                     OUT:
          ----                                     ----
             STORAGE =     1744988.7500               STORAGE =       30102.8555
       CONSTANT HEAD =           0.0000         CONSTANT HEAD =           0.0000
       RIVER LEAKAGE =      997927.5000         RIVER LEAKAGE =       40782.6328
            RECHARGE =           0.0000              RECHARGE =           0.0000

           TOTAL OUT =     2742916.2500             TOTAL OUT =       70885.4844

            IN - OUT =         -50.5000              IN - OUT =           0.7500

 PERCENT DISCREPANCY =          -0.00     PERCENT DISCREPANCY =           0.00






         TIME SUMMARY AT END OF TIME STEP   31 IN STRESS PERIOD    1
                    SECONDS     MINUTES      HOURS       DAYS        YEARS
                    -----------------------------------------------------------
   TIME STEP LENGTH  86400.      1440.0      24.000      1.0000     2.73785E-03
 STRESS PERIOD TIME 2.67840E+06  44640.      744.00      31.000     8.48734E-02
         TOTAL TIME 2.67840E+06  44640.      744.00      31.000     8.48734E-02
1
 
 SOLVING FOR HEAD 
                                                   Max.-Head-Change                        Max.-Flux-Residual
  Residual-Control   Outer-Iter.   Inner-Iter.     Column Row Layer    Max.-Head-Change    Column Row Layer    Max.-Flux-Residual            L2-New               L2-Old           Solver-Max-Delh
          0                 1           2            15    1     1       0.3885042645E+01      39   16    1      -0.7411347822E+03      0.5772140610E+04      0.3174231949E+01      0.3885042645E+01
          0                 2           2            25   19     1       0.5068739137E+00      25   19    1       0.1597102158E+03      0.5979411287E+03      0.5772140610E+04      0.5068739137E+00
          0                 3           2            25   19     1      -0.4378172281E-01      25   19    1      -0.1600690651E+02      0.3322315017E+02      0.5979411287E+03     -0.4378172281E-01

    ------------------------------------------------
       NWT REQUIRED            3 OUTER ITERATIONS 
       AND A TOTAL OF          6 INNER ITERATIONS.
    ------------------------------------------------

 OUTPUT CONTROL FOR STRESS PERIOD    1   TIME STEP   32
    SAVE HEAD FOR ALL LAYERS
    SAVE DRAWDOWN FOR ALL LAYERS
    SAVE BUDGET
    PRINT BUDGET
 UBDSV1 SAVING "         STORAGE" ON UNIT   9 AT TIME STEP 32, STRESS PERIOD   1
 UBDSV2 SAVING "   CONSTANT HEAD" ON UNIT   9 AT TIME STEP 32, STRESS PERIOD   1
 UBDSV1 SAVING "FLOW RIGHT FACE " ON UNIT   9 AT TIME STEP 32, STRESS PERIOD   1
 UBDSV1 SAVING "FLOW FRONT FACE " ON UNIT   9 AT TIME STEP 32, STRESS PERIOD   1
 UBDSV4 SAVING "   RIVER LEAKAGE" ON UNIT   9 AT TIME STEP 32, STRESS PERIOD   1
 UBDSV3 SAVING "        RECHARGE" ON UNIT   9 AT TIME STEP 32, STRESS PERIOD   1

 HEAD WILL BE SAVED ON UNIT 5037 AT END OF TIME STEP   32, STRESS PERIOD    1

 DRAWDOWN WILL BE SAVED ON UNIT   38 AT END OF TIME STEP   32, STRESS PERIOD    1
1
  VOLUMETRIC BUDGET FOR ENTIRE MODEL AT END OF TIME STEP   32, STRESS PERIOD   1
  ------------------------------------------------------------------------------

     CUMULATIVE VOLUMES      L**3       RATES FOR THIS TIME STEP      L**3/T
     ------------------                 ------------------------

           IN:                                      IN:
           ---                                      ---
             STORAGE =     2568291.7500               STORAGE =       58549.1562
       CONSTANT HEAD =           0.0000         CONSTANT HEAD =           0.0000
       RIVER LEAKAGE =      239723.1719         RIVER LEAKAGE =        6599.8145
            RECHARGE =           0.0000              RECHARGE =           0.0000

            TOTAL IN =     2808015.0000              TOTAL IN =       65148.9688

          OUT:                                     OUT:
          ----                                     ----
             STORAGE =     1781216.5000               STORAGE =       36227.7500
       CONSTANT HEAD =           0.0000         CONSTANT HEAD =           0.0000
       RIVER LEAKAGE =     1026849.0000         RIVER LEAKAGE =       28921.5293
            RECHARGE =           0.0000              RECHARGE =           0.0000

           TOTAL OUT =     2808065.5000             TOTAL OUT =       65149.2812

            IN - OUT =         -50.5000              IN - OUT =          -0.3125

 PERCENT DISCREPANCY =          -0.00     PERCENT DISCREPANCY =          -0.00






         TIME SUMMARY AT END OF TIME STEP   32 IN STRESS PERIOD    1
                    SECONDS     MINUTES      HOURS       DAYS        YEARS
                    -----------------------------------------------------------
   TIME STEP LENGTH  86400.      1440.0      24.000      1.0000     2.73785E-03
 STRESS PERIOD TIME 2.76480E+06  46080.      768.00      32.000     8.76112E-02
         TOTAL TIME 2.76480E+06  46080.      768.00      32.000     8.76112E-02
1
 
 SOLVING FOR HEAD 
                                                   Max.-Head-Change                        Max.-Flux-Residual
  Residual-Control   Outer-Iter.   Inner-Iter.     Column Row Layer    Max.-Head-Change    Column Row Layer    Max.-Flux-Residual            L2-New               L2-Old           Solver-Max-Delh
          0                 1           2            15    1     1       0.2289572206E+01      39   16    1      -0.7331983783E+03      0.5736470817E+04      0.3322315017E+02      0.2289572206E+01
          0                 2           2            26   17     1       0.1122329327E+01      26   17    1       0.2508775261E+03      0.6457927466E+03      0.5736470817E+04      0.1122329327E+01
          0                 3           2            26   17     1      -0.9695489235E-01      26   17    1      -0.2507134118E+02      0.4226539328E+02      0.6457927466E+03     -0.9695489235E-01

    ------------------------------------------------
       NWT REQUIRED            3 OUTER ITERATIONS 
       AND A TOTAL OF          6 INNER ITERATIONS.
    ------------------------------------------------

 OUTPUT CONTROL FOR STRESS PERIOD    1   TIME STEP   33
    SAVE HEAD FOR ALL LAYERS
    SAVE DRAWDOWN FOR ALL LAYERS
    SAVE BUDGET
    PRINT BUDGET
 UBDSV1 SAVING "         STORAGE" ON UNIT   9 AT TIME STEP 33, STRESS PERIOD   1
 UBDSV2 SAVING "   CONSTANT HEAD" ON UNIT   9 AT TIME STEP 33, STRESS PERIOD   1
 UBDSV1 SAVING "FLOW RIGHT FACE " ON UNIT   9 AT TIME STEP 33, STRESS PERIOD   1
 UBDSV1 SAVING "FLOW FRONT FACE " ON UNIT   9 AT TIME STEP 33, STRESS PERIOD   1
 UBDSV4 SAVING "   RIVER LEAKAGE" ON UNIT   9 AT TIME STEP 33, STRESS PERIOD   1
 UBDSV3 SAVING "        RECHARGE" ON UNIT   9 AT TIME STEP 33, STRESS PERIOD   1

 HEAD WILL BE SAVED ON UNIT 5037 AT END OF TIME STEP   33, STRESS PERIOD    1

 DRAWDOWN WILL BE SAVED ON UNIT   38 AT END OF TIME STEP   33, STRESS PERIOD    1
1
  VOLUMETRIC BUDGET FOR ENTIRE MODEL AT END OF TIME STEP   33, STRESS PERIOD   1
  ------------------------------------------------------------------------------

     CUMULATIVE VOLUMES      L**3       RATES FOR THIS TIME STEP      L**3/T
     ------------------                 ------------------------

           IN:                                      IN:
           ---                                      ---
             STORAGE =     2633881.7500               STORAGE =       65589.9297
       CONSTANT HEAD =           0.0000         CONSTANT HEAD =           0.0000
       RIVER LEAKAGE =      242968.8594         RIVER LEAKAGE =        3245.6917
            RECHARGE =           0.0000              RECHARGE =           0.0000

            TOTAL IN =     2876850.5000              TOTAL IN =       68835.6250

          OUT:                                     OUT:
          ----                                     ----
             STORAGE =     1809431.5000               STORAGE =       28214.9648
       CONSTANT HEAD =           0.0000         CONSTANT HEAD =           0.0000
       RIVER LEAKAGE =     1067456.2500         RIVER LEAKAGE =       40607.2070
            RECHARGE =           0.0000              RECHARGE =           0.0000

           TOTAL OUT =     2876887.7500             TOTAL OUT =       68822.1719

            IN - OUT =         -37.2500              IN - OUT =          13.4531

 PERCENT DISCREPANCY =          -0.00     PERCENT DISCREPANCY =           0.02






         TIME SUMMARY AT END OF TIME STEP   33 IN STRESS PERIOD    1
                    SECONDS     MINUTES      HOURS       DAYS        YEARS
                    -----------------------------------------------------------
   TIME STEP LENGTH  86400.      1440.0      24.000      1.0000     2.73785E-03
 STRESS PERIOD TIME 2.85120E+06  47520.      792.00      33.000     9.03491E-02
         TOTAL TIME 2.85120E+06  47520.      792.00      33.000     9.03491E-02
1
 
 SOLVING FOR HEAD 
                                                   Max.-Head-Change                        Max.-Flux-Residual
  Residual-Control   Outer-Iter.   Inner-Iter.     Column Row Layer    Max.-Head-Change    Column Row Layer    Max.-Flux-Residual            L2-New               L2-Old           Solver-Max-Delh
          0                 1           2            17    1     1       0.3009364039E+01      39   16    1      -0.7257955842E+03      0.5628442746E+04      0.4226539328E+02      0.3009364039E+01
          0                 2           2             9    7     1       0.1157967274E+01       9    7    1       0.1918301935E+03      0.5941185891E+03      0.5628442746E+04      0.1157967274E+01
          0                 3           2             9    7     1      -0.9832892909E-01       9    7    1      -0.1879812249E+02      0.3409772129E+02      0.5941185891E+03     -0.9832892909E-01

    ------------------------------------------------
       NWT REQUIRED            3 OUTER ITERATIONS 
       AND A TOTAL OF          6 INNER ITERATIONS.
    ------------------------------------------------

 OUTPUT CONTROL FOR STRESS PERIOD    1   TIME STEP   34
    SAVE HEAD FOR ALL LAYERS
    SAVE DRAWDOWN FOR ALL LAYERS
    SAVE BUDGET
    PRINT BUDGET
 UBDSV1 SAVING "         STORAGE" ON UNIT   9 AT TIME STEP 34, STRESS PERIOD   1
 UBDSV2 SAVING "   CONSTANT HEAD" ON UNIT   9 AT TIME STEP 34, STRESS PERIOD   1
 UBDSV1 SAVING "FLOW RIGHT FACE " ON UNIT   9 AT TIME STEP 34, STRESS PERIOD   1
 UBDSV1 SAVING "FLOW FRONT FACE " ON UNIT   9 AT TIME STEP 34, STRESS PERIOD   1
 UBDSV4 SAVING "   RIVER LEAKAGE" ON UNIT   9 AT TIME STEP 34, STRESS PERIOD   1
 UBDSV3 SAVING "        RECHARGE" ON UNIT   9 AT TIME STEP 34, STRESS PERIOD   1

 HEAD WILL BE SAVED ON UNIT 5037 AT END OF TIME STEP   34, STRESS PERIOD    1

 DRAWDOWN WILL BE SAVED ON UNIT   38 AT END OF TIME STEP   34, STRESS PERIOD    1
1
  VOLUMETRIC BUDGET FOR ENTIRE MODEL AT END OF TIME STEP   34, STRESS PERIOD   1
  ------------------------------------------------------------------------------

     CUMULATIVE VOLUMES      L**3       RATES FOR THIS TIME STEP      L**3/T
     ------------------                 ------------------------

           IN:                                      IN:
           ---                                      ---
             STORAGE =     2690579.7500               STORAGE =       56698.0625
       CONSTANT HEAD =           0.0000         CONSTANT HEAD =           0.0000
       RIVER LEAKAGE =      249592.4375         RIVER LEAKAGE =        6623.5747
            RECHARGE =           0.0000              RECHARGE =           0.0000

            TOTAL IN =     2940172.2500              TOTAL IN =       63321.6367

          OUT:                                     OUT:
          ----                                     ----
             STORAGE =     1843989.2500               STORAGE =       34557.8047
       CONSTANT HEAD =           0.0000         CONSTANT HEAD =           0.0000
       RIVER LEAKAGE =     1096220.5000         RIVER LEAKAGE =       28764.2383
            RECHARGE =           0.0000              RECHARGE =           0.0000

           TOTAL OUT =     2940209.7500             TOTAL OUT =       63322.0430

            IN - OUT =         -37.5000              IN - OUT =          -0.4062

 PERCENT DISCREPANCY =          -0.00     PERCENT DISCREPANCY =          -0.00






         TIME SUMMARY AT END OF TIME STEP   34 IN STRESS PERIOD    1
                    SECONDS     MINUTES      HOURS       DAYS        YEARS
                    -----------------------------------------------------------
   TIME STEP LENGTH  86400.      1440.0      24.000      1.0000     2.73785E-03
 STRESS PERIOD TIME 2.93760E+06  48960.      816.00      34.000     9.30869E-02
         TOTAL TIME 2.93760E+06  48960.      816.00      34.000     9.30869E-02
1
 
 SOLVING FOR HEAD 
                                                   Max.-Head-Change                        Max.-Flux-Residual
  Residual-Control   Outer-Iter.   Inner-Iter.     Column Row Layer    Max.-Head-Change    Column Row Layer    Max.-Flux-Residual            L2-New               L2-Old           Solver-Max-Delh
          0                 1           2            17    1     1       0.2114958005E+01      39   16    1      -0.7179358502E+03      0.5597084432E+04      0.3409772129E+02      0.2114958005E+01
          0                 2           2            17    1     1      -0.1821312084E+00      39   16    1       0.7171728160E+02      0.5598211670E+03      0.5597084432E+04     -0.1821312084E+00
          0                 3           2             2    2     1      -0.1092988723E-01      39   16    1       0.3585294115E+01      0.2813966709E+02      0.5598211670E+03     -0.1092988723E-01

    ------------------------------------------------
       NWT REQUIRED            3 OUTER ITERATIONS 
       AND A TOTAL OF          6 INNER ITERATIONS.
    ------------------------------------------------

 OUTPUT CONTROL FOR STRESS PERIOD    1   TIME STEP   35
    SAVE HEAD FOR ALL LAYERS
    SAVE DRAWDOWN FOR ALL LAYERS
    SAVE BUDGET
    PRINT BUDGET
 UBDSV1 SAVING "         STORAGE" ON UNIT   9 AT TIME STEP 35, STRESS PERIOD   1
 UBDSV2 SAVING "   CONSTANT HEAD" ON UNIT   9 AT TIME STEP 35, STRESS PERIOD   1
 UBDSV1 SAVING "FLOW RIGHT FACE " ON UNIT   9 AT TIME STEP 35, STRESS PERIOD   1
 UBDSV1 SAVING "FLOW FRONT FACE " ON UNIT   9 AT TIME STEP 35, STRESS PERIOD   1
 UBDSV4 SAVING "   RIVER LEAKAGE" ON UNIT   9 AT TIME STEP 35, STRESS PERIOD   1
 UBDSV3 SAVING "        RECHARGE" ON UNIT   9 AT TIME STEP 35, STRESS PERIOD   1

 HEAD WILL BE SAVED ON UNIT 5037 AT END OF TIME STEP   35, STRESS PERIOD    1

 DRAWDOWN WILL BE SAVED ON UNIT   38 AT END OF TIME STEP   35, STRESS PERIOD    1
1
  VOLUMETRIC BUDGET FOR ENTIRE MODEL AT END OF TIME STEP   35, STRESS PERIOD   1
  ------------------------------------------------------------------------------

     CUMULATIVE VOLUMES      L**3       RATES FOR THIS TIME STEP      L**3/T
     ------------------                 ------------------------

           IN:                                      IN:
           ---                                      ---
             STORAGE =     2754510.5000               STORAGE =       63930.8438
       CONSTANT HEAD =           0.0000         CONSTANT HEAD =           0.0000
       RIVER LEAKAGE =      252852.9531         RIVER LEAKAGE =        3260.5190
            RECHARGE =           0.0000              RECHARGE =           0.0000

            TOTAL IN =     3007363.5000              TOTAL IN =       67191.3594

          OUT:                                     OUT:
          ----                                     ----
             STORAGE =     1870704.0000               STORAGE =       26714.7461
       CONSTANT HEAD =           0.0000         CONSTANT HEAD =           0.0000
       RIVER LEAKAGE =     1136682.3750         RIVER LEAKAGE =       40461.8438
            RECHARGE =           0.0000              RECHARGE =           0.0000

           TOTAL OUT =     3007386.5000             TOTAL OUT =       67176.5938

            IN - OUT =         -23.0000              IN - OUT =          14.7656

 PERCENT DISCREPANCY =          -0.00     PERCENT DISCREPANCY =           0.02






         TIME SUMMARY AT END OF TIME STEP   35 IN STRESS PERIOD    1
                    SECONDS     MINUTES      HOURS       DAYS        YEARS
                    -----------------------------------------------------------
   TIME STEP LENGTH  86400.      1440.0      24.000      1.0000     2.73785E-03
 STRESS PERIOD TIME 3.02400E+06  50400.      840.00      35.000     9.58248E-02
         TOTAL TIME 3.02400E+06  50400.      840.00      35.000     9.58248E-02
1
 
 SOLVING FOR HEAD 
                                                   Max.-Head-Change                        Max.-Flux-Residual
  Residual-Control   Outer-Iter.   Inner-Iter.     Column Row Layer    Max.-Head-Change    Column Row Layer    Max.-Flux-Residual            L2-New               L2-Old           Solver-Max-Delh
          0                 1           2            17    1     1       0.1488328264E+01      39   16    1      -0.7105671115E+03      0.5504298529E+04      0.2813966709E+02      0.1488328264E+01
          0                 2           2            17    1     1      -0.1282000237E+00      39   16    1       0.7098035462E+02      0.5502371348E+03      0.5504298529E+04     -0.1282000237E+00
          0                 3           2            17    1     1      -0.6406679353E-02      39   16    1       0.3548447395E+01      0.2751047585E+02      0.5502371348E+03     -0.6406679353E-02

    ------------------------------------------------
       NWT REQUIRED            3 OUTER ITERATIONS 
       AND A TOTAL OF          6 INNER ITERATIONS.
    ------------------------------------------------

 OUTPUT CONTROL FOR STRESS PERIOD    1   TIME STEP   36
    SAVE HEAD FOR ALL LAYERS
    SAVE DRAWDOWN FOR ALL LAYERS
    SAVE BUDGET
    PRINT BUDGET
 UBDSV1 SAVING "         STORAGE" ON UNIT   9 AT TIME STEP 36, STRESS PERIOD   1
 UBDSV2 SAVING "   CONSTANT HEAD" ON UNIT   9 AT TIME STEP 36, STRESS PERIOD   1
 UBDSV1 SAVING "FLOW RIGHT FACE " ON UNIT   9 AT TIME STEP 36, STRESS PERIOD   1
 UBDSV1 SAVING "FLOW FRONT FACE " ON UNIT   9 AT TIME STEP 36, STRESS PERIOD   1
 UBDSV4 SAVING "   RIVER LEAKAGE" ON UNIT   9 AT TIME STEP 36, STRESS PERIOD   1
 UBDSV3 SAVING "        RECHARGE" ON UNIT   9 AT TIME STEP 36, STRESS PERIOD   1

 HEAD WILL BE SAVED ON UNIT 5037 AT END OF TIME STEP   36, STRESS PERIOD    1

 DRAWDOWN WILL BE SAVED ON UNIT   38 AT END OF TIME STEP   36, STRESS PERIOD    1
1
  VOLUMETRIC BUDGET FOR ENTIRE MODEL AT END OF TIME STEP   36, STRESS PERIOD   1
  ------------------------------------------------------------------------------

     CUMULATIVE VOLUMES      L**3       RATES FOR THIS TIME STEP      L**3/T
     ------------------                 ------------------------

           IN:                                      IN:
           ---                                      ---
             STORAGE =     2809867.7500               STORAGE =       55357.3008
       CONSTANT HEAD =           0.0000         CONSTANT HEAD =           0.0000
       RIVER LEAKAGE =      259494.7031         RIVER LEAKAGE =        6641.7485
            RECHARGE =           0.0000              RECHARGE =           0.0000

            TOTAL IN =     3069362.5000              TOTAL IN =       61999.0508

          OUT:                                     OUT:
          ----                                     ----
             STORAGE =     1904079.6250               STORAGE =       33375.6172
       CONSTANT HEAD =           0.0000         CONSTANT HEAD =           0.0000
       RIVER LEAKAGE =     1165305.7500         RIVER LEAKAGE =       28623.4297
            RECHARGE =           0.0000              RECHARGE =           0.0000

           TOTAL OUT =     3069385.5000             TOTAL OUT =       61999.0469

            IN - OUT =         -23.0000              IN - OUT =       3.9062E-03

 PERCENT DISCREPANCY =          -0.00     PERCENT DISCREPANCY =           0.00






         TIME SUMMARY AT END OF TIME STEP   36 IN STRESS PERIOD    1
                    SECONDS     MINUTES      HOURS       DAYS        YEARS
                    -----------------------------------------------------------
   TIME STEP LENGTH  86400.      1440.0      24.000      1.0000     2.73785E-03
 STRESS PERIOD TIME 3.11040E+06  51840.      864.00      36.000     9.85626E-02
         TOTAL TIME 3.11040E+06  51840.      864.00      36.000     9.85626E-02
1
 
 SOLVING FOR HEAD 
                                                   Max.-Head-Change                        Max.-Flux-Residual
  Residual-Control   Outer-Iter.   Inner-Iter.     Column Row Layer    Max.-Head-Change    Column Row Layer    Max.-Flux-Residual            L2-New               L2-Old           Solver-Max-Delh
          0                 1           2            17    1     1       0.1047872910E+01      39   16    1      -0.7027996211E+03      0.5495491703E+04      0.2751047585E+02      0.1047872910E+01
          0                 2           2            33    9     1       0.5120605427E+01      20   16    1       0.8158744600E+02      0.5677843860E+03      0.5495491703E+04      0.5120605427E+01
          0                 3           2            33    9     1      -0.4431318581E+00      20   16    1      -0.8238087678E+01      0.3208239595E+02      0.5677843860E+03     -0.4431318581E+00
          0                 4           2            33    9     1      -0.2216586947E-01      20   16    1      -0.4119017873E+00      0.1603919987E+01      0.3208239595E+02     -0.2216586947E-01

    ------------------------------------------------
       NWT REQUIRED            4 OUTER ITERATIONS 
       AND A TOTAL OF          8 INNER ITERATIONS.
    ------------------------------------------------

 OUTPUT CONTROL FOR STRESS PERIOD    1   TIME STEP   37
    SAVE HEAD FOR ALL LAYERS
    SAVE DRAWDOWN FOR ALL LAYERS
    SAVE BUDGET
    PRINT BUDGET
 UBDSV1 SAVING "         STORAGE" ON UNIT   9 AT TIME STEP 37, STRESS PERIOD   1
 UBDSV2 SAVING "   CONSTANT HEAD" ON UNIT   9 AT TIME STEP 37, STRESS PERIOD   1
 UBDSV1 SAVING "FLOW RIGHT FACE " ON UNIT   9 AT TIME STEP 37, STRESS PERIOD   1
 UBDSV1 SAVING "FLOW FRONT FACE " ON UNIT   9 AT TIME STEP 37, STRESS PERIOD   1
 UBDSV4 SAVING "   RIVER LEAKAGE" ON UNIT   9 AT TIME STEP 37, STRESS PERIOD   1
 UBDSV3 SAVING "        RECHARGE" ON UNIT   9 AT TIME STEP 37, STRESS PERIOD   1

 HEAD WILL BE SAVED ON UNIT 5037 AT END OF TIME STEP   37, STRESS PERIOD    1

 DRAWDOWN WILL BE SAVED ON UNIT   38 AT END OF TIME STEP   37, STRESS PERIOD    1
1
  VOLUMETRIC BUDGET FOR ENTIRE MODEL AT END OF TIME STEP   37, STRESS PERIOD   1
  ------------------------------------------------------------------------------

     CUMULATIVE VOLUMES      L**3       RATES FOR THIS TIME STEP      L**3/T
     ------------------                 ------------------------

           IN:                                      IN:
           ---                                      ---
             STORAGE =     2872571.2500               STORAGE =       62703.5078
       CONSTANT HEAD =           0.0000         CONSTANT HEAD =           0.0000
       RIVER LEAKAGE =      262768.5625         RIVER LEAKAGE =        3273.8552
            RECHARGE =           0.0000              RECHARGE =           0.0000

            TOTAL IN =     3135339.7500              TOTAL IN =       65977.3594

          OUT:                                     OUT:
          ----                                     ----
             STORAGE =     1929735.1250               STORAGE =       25655.5156
       CONSTANT HEAD =           0.0000         CONSTANT HEAD =           0.0000
       RIVER LEAKAGE =     1205626.8750         RIVER LEAKAGE =       40321.1406
            RECHARGE =           0.0000              RECHARGE =           0.0000

           TOTAL OUT =     3135362.0000             TOTAL OUT =       65976.6562

            IN - OUT =         -22.2500              IN - OUT =           0.7031

 PERCENT DISCREPANCY =          -0.00     PERCENT DISCREPANCY =           0.00






         TIME SUMMARY AT END OF TIME STEP   37 IN STRESS PERIOD    1
                    SECONDS     MINUTES      HOURS       DAYS        YEARS
                    -----------------------------------------------------------
   TIME STEP LENGTH  86400.      1440.0      24.000      1.0000     2.73785E-03
 STRESS PERIOD TIME 3.19680E+06  53280.      888.00      37.000     0.10130    
         TOTAL TIME 3.19680E+06  53280.      888.00      37.000     0.10130    
1
 
 SOLVING FOR HEAD 
                                                   Max.-Head-Change                        Max.-Flux-Residual
  Residual-Control   Outer-Iter.   Inner-Iter.     Column Row Layer    Max.-Head-Change    Column Row Layer    Max.-Flux-Residual            L2-New               L2-Old           Solver-Max-Delh
          0                 1           2            33    9     1       0.3123549151E+01      39   16    1      -0.6955933815E+03      0.5406813988E+04      0.1603919987E+01      0.3123549151E+01
          0                 2           2            11    3     1       0.5212149214E+01       8   10    1       0.1541675940E+03      0.5871012318E+03      0.5406813988E+04      0.5212149214E+01
          0                 3           2            11    3     1      -0.4198638217E+00       8   10    1      -0.1542606761E+02      0.3740941655E+02      0.5871012318E+03     -0.4198638217E+00
          0                 4           2            11    3     1      -0.2098506681E-01      39   13    1      -0.8573267957E+00      0.1993181770E+01      0.3740941655E+02     -0.2098506681E-01

    ------------------------------------------------
       NWT REQUIRED            4 OUTER ITERATIONS 
       AND A TOTAL OF          8 INNER ITERATIONS.
    ------------------------------------------------

 OUTPUT CONTROL FOR STRESS PERIOD    1   TIME STEP   38
    SAVE HEAD FOR ALL LAYERS
    SAVE DRAWDOWN FOR ALL LAYERS
    SAVE BUDGET
    PRINT BUDGET
 UBDSV1 SAVING "         STORAGE" ON UNIT   9 AT TIME STEP 38, STRESS PERIOD   1
 UBDSV2 SAVING "   CONSTANT HEAD" ON UNIT   9 AT TIME STEP 38, STRESS PERIOD   1
 UBDSV1 SAVING "FLOW RIGHT FACE " ON UNIT   9 AT TIME STEP 38, STRESS PERIOD   1
 UBDSV1 SAVING "FLOW FRONT FACE " ON UNIT   9 AT TIME STEP 38, STRESS PERIOD   1
 UBDSV4 SAVING "   RIVER LEAKAGE" ON UNIT   9 AT TIME STEP 38, STRESS PERIOD   1
 UBDSV3 SAVING "        RECHARGE" ON UNIT   9 AT TIME STEP 38, STRESS PERIOD   1

 HEAD WILL BE SAVED ON UNIT 5037 AT END OF TIME STEP   38, STRESS PERIOD    1

 DRAWDOWN WILL BE SAVED ON UNIT   38 AT END OF TIME STEP   38, STRESS PERIOD    1
1
  VOLUMETRIC BUDGET FOR ENTIRE MODEL AT END OF TIME STEP   38, STRESS PERIOD   1
  ------------------------------------------------------------------------------

     CUMULATIVE VOLUMES      L**3       RATES FOR THIS TIME STEP      L**3/T
     ------------------                 ------------------------

           IN:                                      IN:
           ---                                      ---
             STORAGE =     2926478.0000               STORAGE =       53906.6328
       CONSTANT HEAD =           0.0000         CONSTANT HEAD =           0.0000
       RIVER LEAKAGE =      269422.1562         RIVER LEAKAGE =        6653.6064
            RECHARGE =           0.0000              RECHARGE =           0.0000

            TOTAL IN =     3195900.2500              TOTAL IN =       60560.2383

          OUT:                                     OUT:
          ----                                     ----
             STORAGE =     1961791.8750               STORAGE =       32056.7168
       CONSTANT HEAD =           0.0000         CONSTANT HEAD =           0.0000
       RIVER LEAKAGE =     1234130.3750         RIVER LEAKAGE =       28503.5117
            RECHARGE =           0.0000              RECHARGE =           0.0000

           TOTAL OUT =     3195922.2500             TOTAL OUT =       60560.2266

            IN - OUT =         -22.0000              IN - OUT =       1.1719E-02

 PERCENT DISCREPANCY =          -0.00     PERCENT DISCREPANCY =           0.00






         TIME SUMMARY AT END OF TIME STEP   38 IN STRESS PERIOD    1
                    SECONDS     MINUTES      HOURS       DAYS        YEARS
                    -----------------------------------------------------------
   TIME STEP LENGTH  86400.      1440.0      24.000      1.0000     2.73785E-03
 STRESS PERIOD TIME 3.28320E+06  54720.      912.00      38.000     0.10404    
         TOTAL TIME 3.28320E+06  54720.      912.00      38.000     0.10404    
1
 
 SOLVING FOR HEAD 
                                                   Max.-Head-Change                        Max.-Flux-Residual
  Residual-Control   Outer-Iter.   Inner-Iter.     Column Row Layer    Max.-Head-Change    Column Row Layer    Max.-Flux-Residual            L2-New               L2-Old           Solver-Max-Delh
          0                 1           2            11    3     1       0.5828434474E+01      39   16    1      -0.6880217008E+03      0.5376195362E+04      0.1993181770E+01      0.5828434474E+01
          0                 2           2            27    8     1       0.1198788837E+01      27    5    1       0.2392809806E+03      0.6113532988E+03      0.5376195362E+04      0.1198788837E+01
          0                 3           2            27    8     1      -0.1036114887E+00       9   10    1       0.9983369870E+02      0.1082064371E+03      0.6113532988E+03     -0.1036114887E+00
          0                 4           2            27    8     1      -0.5180227366E-02       9   10    1       0.1771361007E+02      0.1783608202E+02      0.1082064371E+03     -0.5180227366E-02

    ------------------------------------------------
       NWT REQUIRED            4 OUTER ITERATIONS 
       AND A TOTAL OF          8 INNER ITERATIONS.
    ------------------------------------------------

 OUTPUT CONTROL FOR STRESS PERIOD    1   TIME STEP   39
    SAVE HEAD FOR ALL LAYERS
    SAVE DRAWDOWN FOR ALL LAYERS
    SAVE BUDGET
    PRINT BUDGET
 UBDSV1 SAVING "         STORAGE" ON UNIT   9 AT TIME STEP 39, STRESS PERIOD   1
 UBDSV2 SAVING "   CONSTANT HEAD" ON UNIT   9 AT TIME STEP 39, STRESS PERIOD   1
 UBDSV1 SAVING "FLOW RIGHT FACE " ON UNIT   9 AT TIME STEP 39, STRESS PERIOD   1
 UBDSV1 SAVING "FLOW FRONT FACE " ON UNIT   9 AT TIME STEP 39, STRESS PERIOD   1
 UBDSV4 SAVING "   RIVER LEAKAGE" ON UNIT   9 AT TIME STEP 39, STRESS PERIOD   1
 UBDSV3 SAVING "        RECHARGE" ON UNIT   9 AT TIME STEP 39, STRESS PERIOD   1

 HEAD WILL BE SAVED ON UNIT 5037 AT END OF TIME STEP   39, STRESS PERIOD    1

 DRAWDOWN WILL BE SAVED ON UNIT   38 AT END OF TIME STEP   39, STRESS PERIOD    1
1
  VOLUMETRIC BUDGET FOR ENTIRE MODEL AT END OF TIME STEP   39, STRESS PERIOD   1
  ------------------------------------------------------------------------------

     CUMULATIVE VOLUMES      L**3       RATES FOR THIS TIME STEP      L**3/T
     ------------------                 ------------------------

           IN:                                      IN:
           ---                                      ---
             STORAGE =     2987463.5000               STORAGE =       60985.4141
       CONSTANT HEAD =           0.0000         CONSTANT HEAD =           0.0000
       RIVER LEAKAGE =      272710.8125         RIVER LEAKAGE =        3288.6648
            RECHARGE =           0.0000              RECHARGE =           0.0000

            TOTAL IN =     3260174.2500              TOTAL IN =       64274.0781

          OUT:                                     OUT:
          ----                                     ----
             STORAGE =     1985851.7500               STORAGE =       24059.8535
       CONSTANT HEAD =           0.0000         CONSTANT HEAD =           0.0000
       RIVER LEAKAGE =     1274340.7500         RIVER LEAKAGE =       40210.4141
            RECHARGE =           0.0000              RECHARGE =           0.0000

           TOTAL OUT =     3260192.5000             TOTAL OUT =       64270.2656

            IN - OUT =         -18.2500              IN - OUT =           3.8125

 PERCENT DISCREPANCY =          -0.00     PERCENT DISCREPANCY =           0.01






         TIME SUMMARY AT END OF TIME STEP   39 IN STRESS PERIOD    1
                    SECONDS     MINUTES      HOURS       DAYS        YEARS
                    -----------------------------------------------------------
   TIME STEP LENGTH  86400.      1440.0      24.000      1.0000     2.73785E-03
 STRESS PERIOD TIME 3.36960E+06  56160.      936.00      39.000     0.10678    
         TOTAL TIME 3.36960E+06  56160.      936.00      39.000     0.10678    
1
 
 SOLVING FOR HEAD 
                                                   Max.-Head-Change                        Max.-Flux-Residual
  Residual-Control   Outer-Iter.   Inner-Iter.     Column Row Layer    Max.-Head-Change    Column Row Layer    Max.-Flux-Residual            L2-New               L2-Old           Solver-Max-Delh
          0                 1           2            27    8     1       0.3745486032E+01      17    6    1       0.2451581897E+04      0.1235755175E+05      0.1783608202E+02      0.3745486032E+01
          0                 2           2            33    8     1       0.1500271994E+01      17    6    1      -0.2451648098E+03      0.1281529916E+04      0.1235755175E+05      0.1500271994E+01
          0                 3           2            33    8     1      -0.1296185242E+00       9   10    1      -0.2238578884E+02      0.7094136351E+02      0.1281529916E+04     -0.1296185242E+00
          0                 4           2            33    8     1      -0.6480816324E-02       9   10    1      -0.1119258528E+01      0.3546519948E+01      0.7094136351E+02     -0.6480816324E-02

    ------------------------------------------------
       NWT REQUIRED            4 OUTER ITERATIONS 
       AND A TOTAL OF          8 INNER ITERATIONS.
    ------------------------------------------------

 OUTPUT CONTROL FOR STRESS PERIOD    1   TIME STEP   40
    SAVE HEAD FOR ALL LAYERS
    SAVE DRAWDOWN FOR ALL LAYERS
    SAVE BUDGET
    PRINT BUDGET
 UBDSV1 SAVING "         STORAGE" ON UNIT   9 AT TIME STEP 40, STRESS PERIOD   1
 UBDSV2 SAVING "   CONSTANT HEAD" ON UNIT   9 AT TIME STEP 40, STRESS PERIOD   1
 UBDSV1 SAVING "FLOW RIGHT FACE " ON UNIT   9 AT TIME STEP 40, STRESS PERIOD   1
 UBDSV1 SAVING "FLOW FRONT FACE " ON UNIT   9 AT TIME STEP 40, STRESS PERIOD   1
 UBDSV4 SAVING "   RIVER LEAKAGE" ON UNIT   9 AT TIME STEP 40, STRESS PERIOD   1
 UBDSV3 SAVING "        RECHARGE" ON UNIT   9 AT TIME STEP 40, STRESS PERIOD   1

 HEAD WILL BE SAVED ON UNIT 5037 AT END OF TIME STEP   40, STRESS PERIOD    1

 DRAWDOWN WILL BE SAVED ON UNIT   38 AT END OF TIME STEP   40, STRESS PERIOD    1
1
  VOLUMETRIC BUDGET FOR ENTIRE MODEL AT END OF TIME STEP   40, STRESS PERIOD   1
  ------------------------------------------------------------------------------

     CUMULATIVE VOLUMES      L**3       RATES FOR THIS TIME STEP      L**3/T
     ------------------                 ------------------------

           IN:                                      IN:
           ---                                      ---
             STORAGE =     3039178.2500               STORAGE =       51714.8477
       CONSTANT HEAD =           0.0000         CONSTANT HEAD =           0.0000
       RIVER LEAKAGE =      290915.0000         RIVER LEAKAGE =       18204.2031
            RECHARGE =           0.0000              RECHARGE =           0.0000

            TOTAL IN =     3330093.2500              TOTAL IN =       69919.0469

          OUT:                                     OUT:
          ----                                     ----
             STORAGE =     2041750.2500               STORAGE =       55898.4570
       CONSTANT HEAD =           0.0000         CONSTANT HEAD =           0.0000
       RIVER LEAKAGE =     1288362.7500         RIVER LEAKAGE =       14021.9609
            RECHARGE =           0.0000              RECHARGE =           0.0000

           TOTAL OUT =     3330113.0000             TOTAL OUT =       69920.4219

            IN - OUT =         -19.7500              IN - OUT =          -1.3750

 PERCENT DISCREPANCY =          -0.00     PERCENT DISCREPANCY =          -0.00






         TIME SUMMARY AT END OF TIME STEP   40 IN STRESS PERIOD    1
                    SECONDS     MINUTES      HOURS       DAYS        YEARS
                    -----------------------------------------------------------
   TIME STEP LENGTH  86400.      1440.0      24.000      1.0000     2.73785E-03
 STRESS PERIOD TIME 3.45600E+06  57600.      960.00      40.000     0.10951    
         TOTAL TIME 3.45600E+06  57600.      960.00      40.000     0.10951    
1
 
 SOLVING FOR HEAD 
                                                   Max.-Head-Change                        Max.-Flux-Residual
  Residual-Control   Outer-Iter.   Inner-Iter.     Column Row Layer    Max.-Head-Change    Column Row Layer    Max.-Flux-Residual            L2-New               L2-Old           Solver-Max-Delh
          0                 1           2            21   12     1       0.2408101438E+01      17    6    1      -0.2249995663E+04      0.1054429864E+05      0.3546519948E+01      0.2408101438E+01
          0                 2           2            11    1     1       0.1273821793E+01      17    6    1       0.2249932792E+03      0.1079493487E+04      0.1054429864E+05      0.1273821793E+01
          0                 3           2            11    1     1      -0.1100760376E+00      14   16    1      -0.1571342967E+02      0.5824865480E+02      0.1079493487E+04     -0.1100760376E+00
          0                 4           2            11    1     1      -0.5503536322E-02      14   16    1      -0.7856642450E+00      0.2911950279E+01      0.5824865480E+02     -0.5503536322E-02

    ------------------------------------------------
       NWT REQUIRED            4 OUTER ITERATIONS 
       AND A TOTAL OF          8 INNER ITERATIONS.
    ------------------------------------------------

 OUTPUT CONTROL FOR STRESS PERIOD    1   TIME STEP   41
    SAVE HEAD FOR ALL LAYERS
    SAVE DRAWDOWN FOR ALL LAYERS
    SAVE BUDGET
    PRINT BUDGET
 UBDSV1 SAVING "         STORAGE" ON UNIT   9 AT TIME STEP 41, STRESS PERIOD   1
 UBDSV2 SAVING "   CONSTANT HEAD" ON UNIT   9 AT TIME STEP 41, STRESS PERIOD   1
 UBDSV1 SAVING "FLOW RIGHT FACE " ON UNIT   9 AT TIME STEP 41, STRESS PERIOD   1
 UBDSV1 SAVING "FLOW FRONT FACE " ON UNIT   9 AT TIME STEP 41, STRESS PERIOD   1
 UBDSV4 SAVING "   RIVER LEAKAGE" ON UNIT   9 AT TIME STEP 41, STRESS PERIOD   1
 UBDSV3 SAVING "        RECHARGE" ON UNIT   9 AT TIME STEP 41, STRESS PERIOD   1

 HEAD WILL BE SAVED ON UNIT 5037 AT END OF TIME STEP   41, STRESS PERIOD    1

 DRAWDOWN WILL BE SAVED ON UNIT   38 AT END OF TIME STEP   41, STRESS PERIOD    1
1
  VOLUMETRIC BUDGET FOR ENTIRE MODEL AT END OF TIME STEP   41, STRESS PERIOD   1
  ------------------------------------------------------------------------------

     CUMULATIVE VOLUMES      L**3       RATES FOR THIS TIME STEP      L**3/T
     ------------------                 ------------------------

           IN:                                      IN:
           ---                                      ---
             STORAGE =     3115056.2500               STORAGE =       75877.9766
       CONSTANT HEAD =           0.0000         CONSTANT HEAD =           0.0000
       RIVER LEAKAGE =      293363.1250         RIVER LEAKAGE =        2448.1401
            RECHARGE =           0.8002              RECHARGE =           0.8002

            TOTAL IN =     3408420.2500              TOTAL IN =       78326.9141

          OUT:                                     OUT:
          ----                                     ----
             STORAGE =     2064121.7500               STORAGE =       22371.5508
       CONSTANT HEAD =           0.0000         CONSTANT HEAD =           0.0000
       RIVER LEAKAGE =     1344316.5000         RIVER LEAKAGE =       55953.7148
            RECHARGE =           0.0000              RECHARGE =           0.0000

           TOTAL OUT =     3408438.2500             TOTAL OUT =       78325.2656

            IN - OUT =         -18.0000              IN - OUT =           1.6484

 PERCENT DISCREPANCY =          -0.00     PERCENT DISCREPANCY =           0.00






         TIME SUMMARY AT END OF TIME STEP   41 IN STRESS PERIOD    1
                    SECONDS     MINUTES      HOURS       DAYS        YEARS
                    -----------------------------------------------------------
   TIME STEP LENGTH  86400.      1440.0      24.000      1.0000     2.73785E-03
 STRESS PERIOD TIME 3.54240E+06  59040.      984.00      41.000     0.11225    
         TOTAL TIME 3.54240E+06  59040.      984.00      41.000     0.11225    
1
 
 SOLVING FOR HEAD 
                                                   Max.-Head-Change                        Max.-Flux-Residual
  Residual-Control   Outer-Iter.   Inner-Iter.     Column Row Layer    Max.-Head-Change    Column Row Layer    Max.-Flux-Residual            L2-New               L2-Old           Solver-Max-Delh
          0                 1           2            25    4     1       0.1752224031E+01      39   16    1      -0.6666158760E+03      0.4649944008E+04      0.2911950279E+01      0.1752224031E+01
          0                 2           2            25    4     1      -0.1513740770E+00      38   15    1      -0.4817814616E+03      0.6689851877E+03      0.4649944008E+04     -0.1513740770E+00
          0                 3           2            25    4     1      -0.7569239070E-02      38   15    1      -0.2408961101E+02      0.3344929751E+02      0.6689851877E+03     -0.7569239070E-02

    ------------------------------------------------
       NWT REQUIRED            3 OUTER ITERATIONS 
       AND A TOTAL OF          6 INNER ITERATIONS.
    ------------------------------------------------

 OUTPUT CONTROL FOR STRESS PERIOD    1   TIME STEP   42
    SAVE HEAD FOR ALL LAYERS
    SAVE DRAWDOWN FOR ALL LAYERS
    SAVE BUDGET
    PRINT BUDGET
 UBDSV1 SAVING "         STORAGE" ON UNIT   9 AT TIME STEP 42, STRESS PERIOD   1
 UBDSV2 SAVING "   CONSTANT HEAD" ON UNIT   9 AT TIME STEP 42, STRESS PERIOD   1
 UBDSV1 SAVING "FLOW RIGHT FACE " ON UNIT   9 AT TIME STEP 42, STRESS PERIOD   1
 UBDSV1 SAVING "FLOW FRONT FACE " ON UNIT   9 AT TIME STEP 42, STRESS PERIOD   1
 UBDSV4 SAVING "   RIVER LEAKAGE" ON UNIT   9 AT TIME STEP 42, STRESS PERIOD   1
 UBDSV3 SAVING "        RECHARGE" ON UNIT   9 AT TIME STEP 42, STRESS PERIOD   1

 HEAD WILL BE SAVED ON UNIT 5037 AT END OF TIME STEP   42, STRESS PERIOD    1

 DRAWDOWN WILL BE SAVED ON UNIT   38 AT END OF TIME STEP   42, STRESS PERIOD    1
1
  VOLUMETRIC BUDGET FOR ENTIRE MODEL AT END OF TIME STEP   42, STRESS PERIOD   1
  ------------------------------------------------------------------------------

     CUMULATIVE VOLUMES      L**3       RATES FOR THIS TIME STEP      L**3/T
     ------------------                 ------------------------

           IN:                                      IN:
           ---                                      ---
             STORAGE =     3166155.0000               STORAGE =       51098.6836
       CONSTANT HEAD =           0.0000         CONSTANT HEAD =           0.0000
       RIVER LEAKAGE =      299408.1250         RIVER LEAKAGE =        6045.0059
            RECHARGE =           1.2115              RECHARGE =           0.4113

            TOTAL IN =     3465564.2500              TOTAL IN =       57144.0977

          OUT:                                     OUT:
          ----                                     ----
             STORAGE =     2089528.5000               STORAGE =       25406.7988
       CONSTANT HEAD =           0.0000         CONSTANT HEAD =           0.0000
       RIVER LEAKAGE =     1376050.8750         RIVER LEAKAGE =       31734.3418
            RECHARGE =           0.0000              RECHARGE =           0.0000

           TOTAL OUT =     3465579.5000             TOTAL OUT =       57141.1406

            IN - OUT =         -15.2500              IN - OUT =           2.9570

 PERCENT DISCREPANCY =          -0.00     PERCENT DISCREPANCY =           0.01






         TIME SUMMARY AT END OF TIME STEP   42 IN STRESS PERIOD    1
                    SECONDS     MINUTES      HOURS       DAYS        YEARS
                    -----------------------------------------------------------
   TIME STEP LENGTH  86400.      1440.0      24.000      1.0000     2.73785E-03
 STRESS PERIOD TIME 3.62880E+06  60480.      1008.0      42.000     0.11499    
         TOTAL TIME 3.62880E+06  60480.      1008.0      42.000     0.11499    
1
 
 SOLVING FOR HEAD 
                                                   Max.-Head-Change                        Max.-Flux-Residual
  Residual-Control   Outer-Iter.   Inner-Iter.     Column Row Layer    Max.-Head-Change    Column Row Layer    Max.-Flux-Residual            L2-New               L2-Old           Solver-Max-Delh
          0                 1           2            25    4     1       0.1103178353E+01      39   16    1      -0.6595079090E+03      0.5284766229E+04      0.3344929751E+02      0.1103178353E+01
          0                 2           2            27   13     1       0.1016616382E+01      22   19    1       0.2014346442E+03      0.6186721427E+03      0.5284766229E+04      0.1016616382E+01
          0                 3           2            27   13     1      -0.8783216858E-01      32    3    1       0.5351255674E+03      0.5368278869E+03      0.6186721427E+03     -0.8783216858E-01

    ------------------------------------------------
       NWT REQUIRED            3 OUTER ITERATIONS 
       AND A TOTAL OF          6 INNER ITERATIONS.
    ------------------------------------------------

 OUTPUT CONTROL FOR STRESS PERIOD    1   TIME STEP   43
    SAVE HEAD FOR ALL LAYERS
    SAVE DRAWDOWN FOR ALL LAYERS
    SAVE BUDGET
    PRINT BUDGET
 UBDSV1 SAVING "         STORAGE" ON UNIT   9 AT TIME STEP 43, STRESS PERIOD   1
 UBDSV2 SAVING "   CONSTANT HEAD" ON UNIT   9 AT TIME STEP 43, STRESS PERIOD   1
 UBDSV1 SAVING "FLOW RIGHT FACE " ON UNIT   9 AT TIME STEP 43, STRESS PERIOD   1
 UBDSV1 SAVING "FLOW FRONT FACE " ON UNIT   9 AT TIME STEP 43, STRESS PERIOD   1
 UBDSV4 SAVING "   RIVER LEAKAGE" ON UNIT   9 AT TIME STEP 43, STRESS PERIOD   1
 UBDSV3 SAVING "        RECHARGE" ON UNIT   9 AT TIME STEP 43, STRESS PERIOD   1

 HEAD WILL BE SAVED ON UNIT 5037 AT END OF TIME STEP   43, STRESS PERIOD    1

 DRAWDOWN WILL BE SAVED ON UNIT   38 AT END OF TIME STEP   43, STRESS PERIOD    1
1
  VOLUMETRIC BUDGET FOR ENTIRE MODEL AT END OF TIME STEP   43, STRESS PERIOD   1
  ------------------------------------------------------------------------------

     CUMULATIVE VOLUMES      L**3       RATES FOR THIS TIME STEP      L**3/T
     ------------------                 ------------------------

           IN:                                      IN:
           ---                                      ---
             STORAGE =     3225094.0000               STORAGE =       58939.0898
       CONSTANT HEAD =           0.0000         CONSTANT HEAD =           0.0000
       RIVER LEAKAGE =      302645.5625         RIVER LEAKAGE =        3237.4316
            RECHARGE =           1.4227              RECHARGE =           0.2112

            TOTAL IN =     3527741.0000              TOTAL IN =       62176.7344

          OUT:                                     OUT:
          ----                                     ----
             STORAGE =     2110549.5000               STORAGE =       21020.9570
       CONSTANT HEAD =           0.0000         CONSTANT HEAD =           0.0000
       RIVER LEAKAGE =     1417098.2500         RIVER LEAKAGE =       41047.3867
            RECHARGE =           0.0000              RECHARGE =           0.0000

           TOTAL OUT =     3527647.7500             TOTAL OUT =       62068.3438

            IN - OUT =          93.2500              IN - OUT =         108.3906

 PERCENT DISCREPANCY =           0.00     PERCENT DISCREPANCY =           0.17






         TIME SUMMARY AT END OF TIME STEP   43 IN STRESS PERIOD    1
                    SECONDS     MINUTES      HOURS       DAYS        YEARS
                    -----------------------------------------------------------
   TIME STEP LENGTH  86400.      1440.0      24.000      1.0000     2.73785E-03
 STRESS PERIOD TIME 3.71520E+06  61920.      1032.0      43.000     0.11773    
         TOTAL TIME 3.71520E+06  61920.      1032.0      43.000     0.11773    
1
 
 SOLVING FOR HEAD 
                                                   Max.-Head-Change                        Max.-Flux-Residual
  Residual-Control   Outer-Iter.   Inner-Iter.     Column Row Layer    Max.-Head-Change    Column Row Layer    Max.-Flux-Residual            L2-New               L2-Old           Solver-Max-Delh
          0                 1           2            25   10     1       0.1240066582E+01      39   16    1      -0.6528858746E+03      0.4993289878E+04      0.9498818971E+02      0.1240066582E+01
          0                 2           2            12   11     1       0.9713767898E+00      38   15    1      -0.1459228545E+04      0.1565400654E+04      0.4993289878E+04      0.9713767898E+00
          0                 3           2            12   11     1      -0.8390449054E-01      38   15    1      -0.7296766981E+02      0.8198926826E+02      0.1565400654E+04     -0.8390449054E-01

    ------------------------------------------------
       NWT REQUIRED            3 OUTER ITERATIONS 
       AND A TOTAL OF          6 INNER ITERATIONS.
    ------------------------------------------------

 OUTPUT CONTROL FOR STRESS PERIOD    1   TIME STEP   44
    SAVE HEAD FOR ALL LAYERS
    SAVE DRAWDOWN FOR ALL LAYERS
    SAVE BUDGET
    PRINT BUDGET
 UBDSV1 SAVING "         STORAGE" ON UNIT   9 AT TIME STEP 44, STRESS PERIOD   1
 UBDSV2 SAVING "   CONSTANT HEAD" ON UNIT   9 AT TIME STEP 44, STRESS PERIOD   1
 UBDSV1 SAVING "FLOW RIGHT FACE " ON UNIT   9 AT TIME STEP 44, STRESS PERIOD   1
 UBDSV1 SAVING "FLOW FRONT FACE " ON UNIT   9 AT TIME STEP 44, STRESS PERIOD   1
 UBDSV4 SAVING "   RIVER LEAKAGE" ON UNIT   9 AT TIME STEP 44, STRESS PERIOD   1
 UBDSV3 SAVING "        RECHARGE" ON UNIT   9 AT TIME STEP 44, STRESS PERIOD   1

 HEAD WILL BE SAVED ON UNIT 5037 AT END OF TIME STEP   44, STRESS PERIOD    1

 DRAWDOWN WILL BE SAVED ON UNIT   38 AT END OF TIME STEP   44, STRESS PERIOD    1
1
  VOLUMETRIC BUDGET FOR ENTIRE MODEL AT END OF TIME STEP   44, STRESS PERIOD   1
  ------------------------------------------------------------------------------

     CUMULATIVE VOLUMES      L**3       RATES FOR THIS TIME STEP      L**3/T
     ------------------                 ------------------------

           IN:                                      IN:
           ---                                      ---
             STORAGE =     3274545.5000               STORAGE =       49451.4180
       CONSTANT HEAD =           0.0000         CONSTANT HEAD =           0.0000
       RIVER LEAKAGE =      309109.3125         RIVER LEAKAGE =        6463.7432
            RECHARGE =           1.5311              RECHARGE =           0.1084

            TOTAL IN =     3583656.2500              TOTAL IN =       55915.2695

          OUT:                                     OUT:
          ----                                     ----
             STORAGE =     2137855.7500               STORAGE =       27306.2812
       CONSTANT HEAD =           0.0000         CONSTANT HEAD =           0.0000
       RIVER LEAKAGE =     1445711.7500         RIVER LEAKAGE =       28613.4434
            RECHARGE =           0.0000              RECHARGE =           0.0000

           TOTAL OUT =     3583567.5000             TOTAL OUT =       55919.7266

            IN - OUT =          88.7500              IN - OUT =          -4.4570

 PERCENT DISCREPANCY =           0.00     PERCENT DISCREPANCY =          -0.01






         TIME SUMMARY AT END OF TIME STEP   44 IN STRESS PERIOD    1
                    SECONDS     MINUTES      HOURS       DAYS        YEARS
                    -----------------------------------------------------------
   TIME STEP LENGTH  86400.      1440.0      24.000      1.0000     2.73785E-03
 STRESS PERIOD TIME 3.80160E+06  63360.      1056.0      44.000     0.12047    
         TOTAL TIME 3.80160E+06  63360.      1056.0      44.000     0.12047    
1
 
 SOLVING FOR HEAD 
                                                   Max.-Head-Change                        Max.-Flux-Residual
  Residual-Control   Outer-Iter.   Inner-Iter.     Column Row Layer    Max.-Head-Change    Column Row Layer    Max.-Flux-Residual            L2-New               L2-Old           Solver-Max-Delh
          0                 1           2             7    4     1       0.3114920548E+01      39   16    1      -0.6458708608E+03      0.5044218804E+04      0.8198926826E+02      0.3114920548E+01
          0                 2           2            33    3     1       0.8188550260E+00      33    3    1       0.2387988600E+03      0.5853558317E+03      0.5044218804E+04      0.8188550260E+00
          0                 3           2            33    3     1      -0.7072290695E-01      33    3    1      -0.2382161665E+02      0.3959062397E+02      0.5853558317E+03     -0.7072290695E-01

    ------------------------------------------------
       NWT REQUIRED            3 OUTER ITERATIONS 
       AND A TOTAL OF          6 INNER ITERATIONS.
    ------------------------------------------------

 OUTPUT CONTROL FOR STRESS PERIOD    1   TIME STEP   45
    SAVE HEAD FOR ALL LAYERS
    SAVE DRAWDOWN FOR ALL LAYERS
    SAVE BUDGET
    PRINT BUDGET
 UBDSV1 SAVING "         STORAGE" ON UNIT   9 AT TIME STEP 45, STRESS PERIOD   1
 UBDSV2 SAVING "   CONSTANT HEAD" ON UNIT   9 AT TIME STEP 45, STRESS PERIOD   1
 UBDSV1 SAVING "FLOW RIGHT FACE " ON UNIT   9 AT TIME STEP 45, STRESS PERIOD   1
 UBDSV1 SAVING "FLOW FRONT FACE " ON UNIT   9 AT TIME STEP 45, STRESS PERIOD   1
 UBDSV4 SAVING "   RIVER LEAKAGE" ON UNIT   9 AT TIME STEP 45, STRESS PERIOD   1
 UBDSV3 SAVING "        RECHARGE" ON UNIT   9 AT TIME STEP 45, STRESS PERIOD   1

 HEAD WILL BE SAVED ON UNIT 5037 AT END OF TIME STEP   45, STRESS PERIOD    1

 DRAWDOWN WILL BE SAVED ON UNIT   38 AT END OF TIME STEP   45, STRESS PERIOD    1
1
  VOLUMETRIC BUDGET FOR ENTIRE MODEL AT END OF TIME STEP   45, STRESS PERIOD   1
  ------------------------------------------------------------------------------

     CUMULATIVE VOLUMES      L**3       RATES FOR THIS TIME STEP      L**3/T
     ------------------                 ------------------------

           IN:                                      IN:
           ---                                      ---
             STORAGE =     3331414.5000               STORAGE =       56869.0430
       CONSTANT HEAD =           0.0000         CONSTANT HEAD =           0.0000
       RIVER LEAKAGE =      312430.2812         RIVER LEAKAGE =        3320.9797
            RECHARGE =           1.5868              RECHARGE =       5.5665E-02

            TOTAL IN =     3643846.2500              TOTAL IN =       60190.0781

          OUT:                                     OUT:
          ----                                     ----
             STORAGE =     2157858.7500               STORAGE =       20003.0430
       CONSTANT HEAD =           0.0000         CONSTANT HEAD =           0.0000
       RIVER LEAKAGE =     1485885.7500         RIVER LEAKAGE =       40173.9609
            RECHARGE =           0.0000              RECHARGE =           0.0000

           TOTAL OUT =     3643744.5000             TOTAL OUT =       60177.0039

            IN - OUT =         101.7500              IN - OUT =          13.0742

 PERCENT DISCREPANCY =           0.00     PERCENT DISCREPANCY =           0.02






         TIME SUMMARY AT END OF TIME STEP   45 IN STRESS PERIOD    1
                    SECONDS     MINUTES      HOURS       DAYS        YEARS
                    -----------------------------------------------------------
   TIME STEP LENGTH  86400.      1440.0      24.000      1.0000     2.73785E-03
 STRESS PERIOD TIME 3.88800E+06  64800.      1080.0      45.000     0.12320    
         TOTAL TIME 3.88800E+06  64800.      1080.0      45.000     0.12320    
1
 
 SOLVING FOR HEAD 
                                                   Max.-Head-Change                        Max.-Flux-Residual
  Residual-Control   Outer-Iter.   Inner-Iter.     Column Row Layer    Max.-Head-Change    Column Row Layer    Max.-Flux-Residual            L2-New               L2-Old           Solver-Max-Delh
          0                 1           2            10    7     1       0.1922861573E+01      39   16    1      -0.6393958560E+03      0.4930002457E+04      0.3959062397E+02      0.1922861573E+01
          0                 2           2             9    2     1       0.1641579768E+01      38   15    1      -0.1638904034E+04      0.1725623843E+04      0.4930002457E+04      0.1641579768E+01
          0                 3           2             9    2     1      -0.1419116671E+00      38   15    1      -0.8195248910E+02      0.8880037761E+02      0.1725623843E+04     -0.1419116671E+00
          0                 4           2             9    2     1      -0.7094960620E-02      38   15    1      -0.4096818764E+01      0.4439189982E+01      0.8880037761E+02     -0.7094960620E-02

    ------------------------------------------------
       NWT REQUIRED            4 OUTER ITERATIONS 
       AND A TOTAL OF          8 INNER ITERATIONS.
    ------------------------------------------------

 OUTPUT CONTROL FOR STRESS PERIOD    1   TIME STEP   46
    SAVE HEAD FOR ALL LAYERS
    SAVE DRAWDOWN FOR ALL LAYERS
    SAVE BUDGET
    PRINT BUDGET
 UBDSV1 SAVING "         STORAGE" ON UNIT   9 AT TIME STEP 46, STRESS PERIOD   1
 UBDSV2 SAVING "   CONSTANT HEAD" ON UNIT   9 AT TIME STEP 46, STRESS PERIOD   1
 UBDSV1 SAVING "FLOW RIGHT FACE " ON UNIT   9 AT TIME STEP 46, STRESS PERIOD   1
 UBDSV1 SAVING "FLOW FRONT FACE " ON UNIT   9 AT TIME STEP 46, STRESS PERIOD   1
 UBDSV4 SAVING "   RIVER LEAKAGE" ON UNIT   9 AT TIME STEP 46, STRESS PERIOD   1
 UBDSV3 SAVING "        RECHARGE" ON UNIT   9 AT TIME STEP 46, STRESS PERIOD   1

 HEAD WILL BE SAVED ON UNIT 5037 AT END OF TIME STEP   46, STRESS PERIOD    1

 DRAWDOWN WILL BE SAVED ON UNIT   38 AT END OF TIME STEP   46, STRESS PERIOD    1
1
  VOLUMETRIC BUDGET FOR ENTIRE MODEL AT END OF TIME STEP   46, STRESS PERIOD   1
  ------------------------------------------------------------------------------

     CUMULATIVE VOLUMES      L**3       RATES FOR THIS TIME STEP      L**3/T
     ------------------                 ------------------------

           IN:                                      IN:
           ---                                      ---
             STORAGE =     3379583.7500               STORAGE =       48169.2461
       CONSTANT HEAD =           0.0000         CONSTANT HEAD =           0.0000
       RIVER LEAKAGE =      318930.0312         RIVER LEAKAGE =        6499.7646
            RECHARGE =           1.6154              RECHARGE =       2.8580E-02

            TOTAL IN =     3698515.2500              TOTAL IN =       54669.0391

          OUT:                                     OUT:
          ----                                     ----
             STORAGE =     2184207.0000               STORAGE =       26348.2773
       CONSTANT HEAD =           0.0000         CONSTANT HEAD =           0.0000
       RIVER LEAKAGE =     1514206.7500         RIVER LEAKAGE =       28321.0078
            RECHARGE =           0.0000              RECHARGE =           0.0000

           TOTAL OUT =     3698413.7500             TOTAL OUT =       54669.2852

            IN - OUT =         101.5000              IN - OUT =          -0.2461

 PERCENT DISCREPANCY =           0.00     PERCENT DISCREPANCY =          -0.00






         TIME SUMMARY AT END OF TIME STEP   46 IN STRESS PERIOD    1
                    SECONDS     MINUTES      HOURS       DAYS        YEARS
                    -----------------------------------------------------------
   TIME STEP LENGTH  86400.      1440.0      24.000      1.0000     2.73785E-03
 STRESS PERIOD TIME 3.97440E+06  66240.      1104.0      46.000     0.12594    
         TOTAL TIME 3.97440E+06  66240.      1104.0      46.000     0.12594    
1
 
 SOLVING FOR HEAD 
                                                   Max.-Head-Change                        Max.-Flux-Residual
  Residual-Control   Outer-Iter.   Inner-Iter.     Column Row Layer    Max.-Head-Change    Column Row Layer    Max.-Flux-Residual            L2-New               L2-Old           Solver-Max-Delh
          0                 1           2             9    2     1       0.1693736428E+01      39   16    1      -0.6326092201E+03      0.4922259722E+04      0.4439189982E+01      0.1693736428E+01
          0                 2           2             9   11     1       0.6578875204E+00      40   18    1       0.1215563547E+03      0.5270929336E+03      0.4922259722E+04      0.6578875204E+00
          0                 3           2             9   11     1      -0.5681540984E-01      40   18    1      -0.1215280825E+02      0.3141408355E+02      0.5270929336E+03     -0.5681540984E-01

    ------------------------------------------------
       NWT REQUIRED            3 OUTER ITERATIONS 
       AND A TOTAL OF          6 INNER ITERATIONS.
    ------------------------------------------------

 OUTPUT CONTROL FOR STRESS PERIOD    1   TIME STEP   47
    SAVE HEAD FOR ALL LAYERS
    SAVE DRAWDOWN FOR ALL LAYERS
    SAVE BUDGET
    PRINT BUDGET
 UBDSV1 SAVING "         STORAGE" ON UNIT   9 AT TIME STEP 47, STRESS PERIOD   1
 UBDSV2 SAVING "   CONSTANT HEAD" ON UNIT   9 AT TIME STEP 47, STRESS PERIOD   1
 UBDSV1 SAVING "FLOW RIGHT FACE " ON UNIT   9 AT TIME STEP 47, STRESS PERIOD   1
 UBDSV1 SAVING "FLOW FRONT FACE " ON UNIT   9 AT TIME STEP 47, STRESS PERIOD   1
 UBDSV4 SAVING "   RIVER LEAKAGE" ON UNIT   9 AT TIME STEP 47, STRESS PERIOD   1
 UBDSV3 SAVING "        RECHARGE" ON UNIT   9 AT TIME STEP 47, STRESS PERIOD   1

 HEAD WILL BE SAVED ON UNIT 5037 AT END OF TIME STEP   47, STRESS PERIOD    1

 DRAWDOWN WILL BE SAVED ON UNIT   38 AT END OF TIME STEP   47, STRESS PERIOD    1
1
  VOLUMETRIC BUDGET FOR ENTIRE MODEL AT END OF TIME STEP   47, STRESS PERIOD   1
  ------------------------------------------------------------------------------

     CUMULATIVE VOLUMES      L**3       RATES FOR THIS TIME STEP      L**3/T
     ------------------                 ------------------------

           IN:                                      IN:
           ---                                      ---
             STORAGE =     3435143.5000               STORAGE =       55559.7734
       CONSTANT HEAD =           0.0000         CONSTANT HEAD =           0.0000
       RIVER LEAKAGE =      322270.1250         RIVER LEAKAGE =        3340.1003
            RECHARGE =           1.6301              RECHARGE =       1.4673E-02

            TOTAL IN =     3757415.2500              TOTAL IN =       58899.8906

          OUT:                                     OUT:
          ----                                     ----
             STORAGE =     2203091.2500               STORAGE =       18884.3379
       CONSTANT HEAD =           0.0000         CONSTANT HEAD =           0.0000
       RIVER LEAKAGE =     1554208.6250         RIVER LEAKAGE =       40001.8438
            RECHARGE =           0.0000              RECHARGE =           0.0000

           TOTAL OUT =     3757300.0000             TOTAL OUT =       58886.1797

            IN - OUT =         115.2500              IN - OUT =          13.7109

 PERCENT DISCREPANCY =           0.00     PERCENT DISCREPANCY =           0.02






         TIME SUMMARY AT END OF TIME STEP   47 IN STRESS PERIOD    1
                    SECONDS     MINUTES      HOURS       DAYS        YEARS
                    -----------------------------------------------------------
   TIME STEP LENGTH  86400.      1440.0      24.000      1.0000     2.73785E-03
 STRESS PERIOD TIME 4.06080E+06  67680.      1128.0      47.000     0.12868    
         TOTAL TIME 4.06080E+06  67680.      1128.0      47.000     0.12868    
1
 
 SOLVING FOR HEAD 
                                                   Max.-Head-Change                        Max.-Flux-Residual
  Residual-Control   Outer-Iter.   Inner-Iter.     Column Row Layer    Max.-Head-Change    Column Row Layer    Max.-Flux-Residual            L2-New               L2-Old           Solver-Max-Delh
          0                 1           2             9   11     1       0.1163243576E+01      39   16    1      -0.6263222612E+03      0.4837560038E+04      0.3141408355E+02      0.1163243576E+01
          0                 2           2             9   11     1      -0.1006457320E+00      38   15    1      -0.1603050202E+04      0.1674191512E+04      0.4837560038E+04     -0.1006457320E+00
          0                 3           2            16   16     1      -0.8502299153E-02      38   15    1      -0.8015924330E+02      0.8379232128E+02      0.1674191512E+04     -0.8502299153E-02

    ------------------------------------------------
       NWT REQUIRED            3 OUTER ITERATIONS 
       AND A TOTAL OF          6 INNER ITERATIONS.
    ------------------------------------------------

 OUTPUT CONTROL FOR STRESS PERIOD    1   TIME STEP   48
    SAVE HEAD FOR ALL LAYERS
    SAVE DRAWDOWN FOR ALL LAYERS
    SAVE BUDGET
    PRINT BUDGET
 UBDSV1 SAVING "         STORAGE" ON UNIT   9 AT TIME STEP 48, STRESS PERIOD   1
 UBDSV2 SAVING "   CONSTANT HEAD" ON UNIT   9 AT TIME STEP 48, STRESS PERIOD   1
 UBDSV1 SAVING "FLOW RIGHT FACE " ON UNIT   9 AT TIME STEP 48, STRESS PERIOD   1
 UBDSV1 SAVING "FLOW FRONT FACE " ON UNIT   9 AT TIME STEP 48, STRESS PERIOD   1
 UBDSV4 SAVING "   RIVER LEAKAGE" ON UNIT   9 AT TIME STEP 48, STRESS PERIOD   1
 UBDSV3 SAVING "        RECHARGE" ON UNIT   9 AT TIME STEP 48, STRESS PERIOD   1

 HEAD WILL BE SAVED ON UNIT 5037 AT END OF TIME STEP   48, STRESS PERIOD    1

 DRAWDOWN WILL BE SAVED ON UNIT   38 AT END OF TIME STEP   48, STRESS PERIOD    1
1
  VOLUMETRIC BUDGET FOR ENTIRE MODEL AT END OF TIME STEP   48, STRESS PERIOD   1
  ------------------------------------------------------------------------------

     CUMULATIVE VOLUMES      L**3       RATES FOR THIS TIME STEP      L**3/T
     ------------------                 ------------------------

           IN:                                      IN:
           ---                                      ---
             STORAGE =     3482271.7500               STORAGE =       47128.2305
       CONSTANT HEAD =           0.0000         CONSTANT HEAD =           0.0000
       RIVER LEAKAGE =      328793.8125         RIVER LEAKAGE =        6523.6865
            RECHARGE =           1.6376              RECHARGE =       7.5335E-03

            TOTAL IN =     3811067.2500              TOTAL IN =       53651.9258

          OUT:                                     OUT:
          ----                                     ----
             STORAGE =     2228535.7500               STORAGE =       25444.5293
       CONSTANT HEAD =           0.0000         CONSTANT HEAD =           0.0000
       RIVER LEAKAGE =     1582420.1250         RIVER LEAKAGE =       28211.4512
            RECHARGE =           0.0000              RECHARGE =           0.0000

           TOTAL OUT =     3810956.0000             TOTAL OUT =       53655.9805

            IN - OUT =         111.2500              IN - OUT =          -4.0547

 PERCENT DISCREPANCY =           0.00     PERCENT DISCREPANCY =          -0.01






         TIME SUMMARY AT END OF TIME STEP   48 IN STRESS PERIOD    1
                    SECONDS     MINUTES      HOURS       DAYS        YEARS
                    -----------------------------------------------------------
   TIME STEP LENGTH  86400.      1440.0      24.000      1.0000     2.73785E-03
 STRESS PERIOD TIME 4.14720E+06  69120.      1152.0      48.000     0.13142    
         TOTAL TIME 4.14720E+06  69120.      1152.0      48.000     0.13142    
1
 
 SOLVING FOR HEAD 
                                                   Max.-Head-Change                        Max.-Flux-Residual
  Residual-Control   Outer-Iter.   Inner-Iter.     Column Row Layer    Max.-Head-Change    Column Row Layer    Max.-Flux-Residual            L2-New               L2-Old           Solver-Max-Delh
          0                 1           2            16   16     1       0.9524391217E+00      39   16    1      -0.6196827285E+03      0.4850237017E+04      0.8379232128E+02      0.9524391217E+00
          0                 2           2            16   16     1      -0.8232033248E-01      39   16    1       0.6191113104E+02      0.4837965149E+03      0.4850237017E+04     -0.8232033248E-01

    ------------------------------------------------
       NWT REQUIRED            2 OUTER ITERATIONS 
       AND A TOTAL OF          4 INNER ITERATIONS.
    ------------------------------------------------

 OUTPUT CONTROL FOR STRESS PERIOD    1   TIME STEP   49
    SAVE HEAD FOR ALL LAYERS
    SAVE DRAWDOWN FOR ALL LAYERS
    SAVE BUDGET
    PRINT BUDGET
 UBDSV1 SAVING "         STORAGE" ON UNIT   9 AT TIME STEP 49, STRESS PERIOD   1
 UBDSV2 SAVING "   CONSTANT HEAD" ON UNIT   9 AT TIME STEP 49, STRESS PERIOD   1
 UBDSV1 SAVING "FLOW RIGHT FACE " ON UNIT   9 AT TIME STEP 49, STRESS PERIOD   1
 UBDSV1 SAVING "FLOW FRONT FACE " ON UNIT   9 AT TIME STEP 49, STRESS PERIOD   1
 UBDSV4 SAVING "   RIVER LEAKAGE" ON UNIT   9 AT TIME STEP 49, STRESS PERIOD   1
 UBDSV3 SAVING "        RECHARGE" ON UNIT   9 AT TIME STEP 49, STRESS PERIOD   1

 HEAD WILL BE SAVED ON UNIT 5037 AT END OF TIME STEP   49, STRESS PERIOD    1

 DRAWDOWN WILL BE SAVED ON UNIT   38 AT END OF TIME STEP   49, STRESS PERIOD    1
1
  VOLUMETRIC BUDGET FOR ENTIRE MODEL AT END OF TIME STEP   49, STRESS PERIOD   1
  ------------------------------------------------------------------------------

     CUMULATIVE VOLUMES      L**3       RATES FOR THIS TIME STEP      L**3/T
     ------------------                 ------------------------

           IN:                                      IN:
           ---                                      ---
             STORAGE =     3537164.0000               STORAGE =       54892.1797
       CONSTANT HEAD =           0.0000         CONSTANT HEAD =           0.0000
       RIVER LEAKAGE =      332149.5938         RIVER LEAKAGE =        3355.7942
            RECHARGE =           1.6415              RECHARGE =       3.8678E-03

            TOTAL IN =     3869315.2500              TOTAL IN =       58247.9766

          OUT:                                     OUT:
          ----                                     ----
             STORAGE =     2246686.5000               STORAGE =       18150.8594
       CONSTANT HEAD =           0.0000         CONSTANT HEAD =           0.0000
       RIVER LEAKAGE =     1622227.1250         RIVER LEAKAGE =       39807.0391
            RECHARGE =           0.0000              RECHARGE =           0.0000

           TOTAL OUT =     3868913.5000             TOTAL OUT =       57957.8984

            IN - OUT =         401.7500              IN - OUT =         290.0781

 PERCENT DISCREPANCY =           0.01     PERCENT DISCREPANCY =           0.50






         TIME SUMMARY AT END OF TIME STEP   49 IN STRESS PERIOD    1
                    SECONDS     MINUTES      HOURS       DAYS        YEARS
                    -----------------------------------------------------------
   TIME STEP LENGTH  86400.      1440.0      24.000      1.0000     2.73785E-03
 STRESS PERIOD TIME 4.23360E+06  70560.      1176.0      49.000     0.13415    
         TOTAL TIME 4.23360E+06  70560.      1176.0      49.000     0.13415    
1
 
 SOLVING FOR HEAD 
                                                   Max.-Head-Change                        Max.-Flux-Residual
  Residual-Control   Outer-Iter.   Inner-Iter.     Column Row Layer    Max.-Head-Change    Column Row Layer    Max.-Flux-Residual            L2-New               L2-Old           Solver-Max-Delh
          0                 1           2            40   18     1       0.5972351210E+00      39   16    1      -0.6135593548E+03      0.4764309130E+04      0.2434633546E+02      0.5972351210E+00
          0                 2           2            40   18     1      -0.5164558673E-01      39   16    1       0.6129861542E+02      0.4762885521E+03      0.4764309130E+04     -0.5164558673E-01

    ------------------------------------------------
       NWT REQUIRED            2 OUTER ITERATIONS 
       AND A TOTAL OF          4 INNER ITERATIONS.
    ------------------------------------------------

 OUTPUT CONTROL FOR STRESS PERIOD    1   TIME STEP   50
    SAVE HEAD FOR ALL LAYERS
    SAVE DRAWDOWN FOR ALL LAYERS
    SAVE BUDGET
    PRINT BUDGET
 UBDSV1 SAVING "         STORAGE" ON UNIT   9 AT TIME STEP 50, STRESS PERIOD   1
 UBDSV2 SAVING "   CONSTANT HEAD" ON UNIT   9 AT TIME STEP 50, STRESS PERIOD   1
 UBDSV1 SAVING "FLOW RIGHT FACE " ON UNIT   9 AT TIME STEP 50, STRESS PERIOD   1
 UBDSV1 SAVING "FLOW FRONT FACE " ON UNIT   9 AT TIME STEP 50, STRESS PERIOD   1
 UBDSV4 SAVING "   RIVER LEAKAGE" ON UNIT   9 AT TIME STEP 50, STRESS PERIOD   1
 UBDSV3 SAVING "        RECHARGE" ON UNIT   9 AT TIME STEP 50, STRESS PERIOD   1

 HEAD WILL BE SAVED ON UNIT 5037 AT END OF TIME STEP   50, STRESS PERIOD    1

 DRAWDOWN WILL BE SAVED ON UNIT   38 AT END OF TIME STEP   50, STRESS PERIOD    1
1
  VOLUMETRIC BUDGET FOR ENTIRE MODEL AT END OF TIME STEP   50, STRESS PERIOD   1
  ------------------------------------------------------------------------------

     CUMULATIVE VOLUMES      L**3       RATES FOR THIS TIME STEP      L**3/T
     ------------------                 ------------------------

           IN:                                      IN:
           ---                                      ---
             STORAGE =     3583659.0000               STORAGE =       46494.9180
       CONSTANT HEAD =           0.0000         CONSTANT HEAD =           0.0000
       RIVER LEAKAGE =      338665.4375         RIVER LEAKAGE =        6515.8506
            RECHARGE =           1.6434              RECHARGE =       1.9858E-03

            TOTAL IN =     3922326.2500              TOTAL IN =       53010.7734

          OUT:                                     OUT:
          ----                                     ----
             STORAGE =     2271517.7500               STORAGE =       24831.1816
       CONSTANT HEAD =           0.0000         CONSTANT HEAD =           0.0000
       RIVER LEAKAGE =     1650409.8750         RIVER LEAKAGE =       28182.7285
            RECHARGE =           0.0000              RECHARGE =           0.0000

           TOTAL OUT =     3921927.5000             TOTAL OUT =       53013.9102

            IN - OUT =         398.7500              IN - OUT =          -3.1367

 PERCENT DISCREPANCY =           0.01     PERCENT DISCREPANCY =          -0.01






         TIME SUMMARY AT END OF TIME STEP   50 IN STRESS PERIOD    1
                    SECONDS     MINUTES      HOURS       DAYS        YEARS
                    -----------------------------------------------------------
   TIME STEP LENGTH  86400.      1440.0      24.000      1.0000     2.73785E-03
 STRESS PERIOD TIME 4.32000E+06  72000.      1200.0      50.000     0.13689    
         TOTAL TIME 4.32000E+06  72000.      1200.0      50.000     0.13689    
1
 
 SOLVING FOR HEAD 
                                                   Max.-Head-Change                        Max.-Flux-Residual
  Residual-Control   Outer-Iter.   Inner-Iter.     Column Row Layer    Max.-Head-Change    Column Row Layer    Max.-Flux-Residual            L2-New               L2-Old           Solver-Max-Delh
          0                 1           2            40   18     1       0.4550246592E+00      39   16    1      -0.6070797250E+03      0.4783476506E+04      0.2381348422E+02      0.4550246592E+00
          0                 2           2            10   11     1       0.1094897553E+01      27   22    1       0.1531265159E+03      0.5456887165E+03      0.4783476506E+04      0.1094897553E+01
          0                 3           2            10   11     1      -0.9456730717E-01      27   22    1      -0.1532805681E+02      0.3629824534E+02      0.5456887165E+03     -0.9456730717E-01

    ------------------------------------------------
       NWT REQUIRED            3 OUTER ITERATIONS 
       AND A TOTAL OF          6 INNER ITERATIONS.
    ------------------------------------------------

 OUTPUT CONTROL FOR STRESS PERIOD    1   TIME STEP   51
    SAVE HEAD FOR ALL LAYERS
    SAVE DRAWDOWN FOR ALL LAYERS
    SAVE BUDGET
    PRINT BUDGET
 UBDSV1 SAVING "         STORAGE" ON UNIT   9 AT TIME STEP 51, STRESS PERIOD   1
 UBDSV2 SAVING "   CONSTANT HEAD" ON UNIT   9 AT TIME STEP 51, STRESS PERIOD   1
 UBDSV1 SAVING "FLOW RIGHT FACE " ON UNIT   9 AT TIME STEP 51, STRESS PERIOD   1
 UBDSV1 SAVING "FLOW FRONT FACE " ON UNIT   9 AT TIME STEP 51, STRESS PERIOD   1
 UBDSV4 SAVING "   RIVER LEAKAGE" ON UNIT   9 AT TIME STEP 51, STRESS PERIOD   1
 UBDSV3 SAVING "        RECHARGE" ON UNIT   9 AT TIME STEP 51, STRESS PERIOD   1

 HEAD WILL BE SAVED ON UNIT 5037 AT END OF TIME STEP   51, STRESS PERIOD    1

 DRAWDOWN WILL BE SAVED ON UNIT   38 AT END OF TIME STEP   51, STRESS PERIOD    1
1
  VOLUMETRIC BUDGET FOR ENTIRE MODEL AT END OF TIME STEP   51, STRESS PERIOD   1
  ------------------------------------------------------------------------------

     CUMULATIVE VOLUMES      L**3       RATES FOR THIS TIME STEP      L**3/T
     ------------------                 ------------------------

           IN:                                      IN:
           ---                                      ---
             STORAGE =     3637503.2500               STORAGE =       53844.1328
       CONSTANT HEAD =           0.0000         CONSTANT HEAD =           0.0000
       RIVER LEAKAGE =      342027.9375         RIVER LEAKAGE =        3362.4910
            RECHARGE =           1.6445              RECHARGE =       1.0195E-03

            TOTAL IN =     3979533.0000              TOTAL IN =       57206.6250

          OUT:                                     OUT:
          ----                                     ----
             STORAGE =     2288921.7500               STORAGE =       17404.1172
       CONSTANT HEAD =           0.0000         CONSTANT HEAD =           0.0000
       RIVER LEAKAGE =     1690199.3750         RIVER LEAKAGE =       39789.5234
            RECHARGE =           0.0000              RECHARGE =           0.0000

           TOTAL OUT =     3979121.0000             TOTAL OUT =       57193.6406

            IN - OUT =         412.0000              IN - OUT =          12.9844

 PERCENT DISCREPANCY =           0.01     PERCENT DISCREPANCY =           0.02






         TIME SUMMARY AT END OF TIME STEP   51 IN STRESS PERIOD    1
                    SECONDS     MINUTES      HOURS       DAYS        YEARS
                    -----------------------------------------------------------
   TIME STEP LENGTH  86400.      1440.0      24.000      1.0000     2.73785E-03
 STRESS PERIOD TIME 4.40640E+06  73440.      1224.0      51.000     0.13963    
         TOTAL TIME 4.40640E+06  73440.      1224.0      51.000     0.13963    
1
 
 SOLVING FOR HEAD 
                                                   Max.-Head-Change                        Max.-Flux-Residual
  Residual-Control   Outer-Iter.   Inner-Iter.     Column Row Layer    Max.-Head-Change    Column Row Layer    Max.-Flux-Residual            L2-New               L2-Old           Solver-Max-Delh
          0                 1           2            10   11     1       0.2042995965E+01      39   16    1      -0.6011145624E+03      0.4706078997E+04      0.3629824534E+02      0.2042995965E+01
          0                 2           2             9   12     1       0.5729401388E+00      38   15    1      -0.1598597243E+04      0.1673140520E+04      0.4706078997E+04      0.5729401388E+00
          0                 3           2             9   12     1      -0.4948846865E-01      38   15    1      -0.7993642604E+02      0.8479647471E+02      0.1673140520E+04     -0.4948846865E-01

    ------------------------------------------------
       NWT REQUIRED            3 OUTER ITERATIONS 
       AND A TOTAL OF          6 INNER ITERATIONS.
    ------------------------------------------------

 OUTPUT CONTROL FOR STRESS PERIOD    1   TIME STEP   52
    SAVE HEAD FOR ALL LAYERS
    SAVE DRAWDOWN FOR ALL LAYERS
    SAVE BUDGET
    PRINT BUDGET
 UBDSV1 SAVING "         STORAGE" ON UNIT   9 AT TIME STEP 52, STRESS PERIOD   1
 UBDSV2 SAVING "   CONSTANT HEAD" ON UNIT   9 AT TIME STEP 52, STRESS PERIOD   1
 UBDSV1 SAVING "FLOW RIGHT FACE " ON UNIT   9 AT TIME STEP 52, STRESS PERIOD   1
 UBDSV1 SAVING "FLOW FRONT FACE " ON UNIT   9 AT TIME STEP 52, STRESS PERIOD   1
 UBDSV4 SAVING "   RIVER LEAKAGE" ON UNIT   9 AT TIME STEP 52, STRESS PERIOD   1
 UBDSV3 SAVING "        RECHARGE" ON UNIT   9 AT TIME STEP 52, STRESS PERIOD   1

 HEAD WILL BE SAVED ON UNIT 5037 AT END OF TIME STEP   52, STRESS PERIOD    1

 DRAWDOWN WILL BE SAVED ON UNIT   38 AT END OF TIME STEP   52, STRESS PERIOD    1
1
  VOLUMETRIC BUDGET FOR ENTIRE MODEL AT END OF TIME STEP   52, STRESS PERIOD   1
  ------------------------------------------------------------------------------

     CUMULATIVE VOLUMES      L**3       RATES FOR THIS TIME STEP      L**3/T
     ------------------                 ------------------------

           IN:                                      IN:
           ---                                      ---
             STORAGE =     3683014.0000               STORAGE =       45510.8555
       CONSTANT HEAD =           0.0000         CONSTANT HEAD =           0.0000
       RIVER LEAKAGE =      348589.9688         RIVER LEAKAGE =        6562.0356
            RECHARGE =           1.6450              RECHARGE =       5.2345E-04

            TOTAL IN =     4031605.7500              TOTAL IN =       52072.8906

          OUT:                                     OUT:
          ----                                     ----
             STORAGE =     2312993.7500               STORAGE =       24071.9277
       CONSTANT HEAD =           0.0000         CONSTANT HEAD =           0.0000
       RIVER LEAKAGE =     1718204.8750         RIVER LEAKAGE =       28005.5547
            RECHARGE =           0.0000              RECHARGE =           0.0000

           TOTAL OUT =     4031198.5000             TOTAL OUT =       52077.4844

            IN - OUT =         407.2500              IN - OUT =          -4.5938

 PERCENT DISCREPANCY =           0.01     PERCENT DISCREPANCY =          -0.01






         TIME SUMMARY AT END OF TIME STEP   52 IN STRESS PERIOD    1
                    SECONDS     MINUTES      HOURS       DAYS        YEARS
                    -----------------------------------------------------------
   TIME STEP LENGTH  86400.      1440.0      24.000      1.0000     2.73785E-03
 STRESS PERIOD TIME 4.49280E+06  74880.      1248.0      52.000     0.14237    
         TOTAL TIME 4.49280E+06  74880.      1248.0      52.000     0.14237    
1
 
 SOLVING FOR HEAD 
                                                   Max.-Head-Change                        Max.-Flux-Residual
  Residual-Control   Outer-Iter.   Inner-Iter.     Column Row Layer    Max.-Head-Change    Column Row Layer    Max.-Flux-Residual            L2-New               L2-Old           Solver-Max-Delh
          0                 1           2            10   11     1       0.1473468164E+01      39   16    1      -0.5947899868E+03      0.4720757056E+04      0.8479647471E+02      0.1473468164E+01
          0                 2           2            22    4     1       0.3585706997E+01      22    4    1       0.1010907367E+03      0.4852139736E+03      0.4720757056E+04      0.3585706997E+01
          1                 2           0            22    4     1       0.2509994855E+01      12   15    1       0.5663617443E+03      0.5669773213E+03      0.4852139736E+03      0.3585706997E+01
          0                 3           2            22    4     1       0.8243767358E+00      12   15    1       0.3892059818E+03      0.4206748877E+03      0.5669773213E+03      0.8243767358E+00
          0                 4           2            22    4     1      -0.7120933828E-01      12   15    1       0.6907964206E+02      0.6958461712E+02      0.4206748877E+03     -0.7120933828E-01

    ------------------------------------------------
       NWT REQUIRED            4 OUTER ITERATIONS 
       AND A TOTAL OF          8 INNER ITERATIONS.
    ------------------------------------------------

 OUTPUT CONTROL FOR STRESS PERIOD    1   TIME STEP   53
    SAVE HEAD FOR ALL LAYERS
    SAVE DRAWDOWN FOR ALL LAYERS
    SAVE BUDGET
    PRINT BUDGET
 UBDSV1 SAVING "         STORAGE" ON UNIT   9 AT TIME STEP 53, STRESS PERIOD   1
 UBDSV2 SAVING "   CONSTANT HEAD" ON UNIT   9 AT TIME STEP 53, STRESS PERIOD   1
 UBDSV1 SAVING "FLOW RIGHT FACE " ON UNIT   9 AT TIME STEP 53, STRESS PERIOD   1
 UBDSV1 SAVING "FLOW FRONT FACE " ON UNIT   9 AT TIME STEP 53, STRESS PERIOD   1
 UBDSV4 SAVING "   RIVER LEAKAGE" ON UNIT   9 AT TIME STEP 53, STRESS PERIOD   1
 UBDSV3 SAVING "        RECHARGE" ON UNIT   9 AT TIME STEP 53, STRESS PERIOD   1

 HEAD WILL BE SAVED ON UNIT 5037 AT END OF TIME STEP   53, STRESS PERIOD    1

 DRAWDOWN WILL BE SAVED ON UNIT   38 AT END OF TIME STEP   53, STRESS PERIOD    1
1
  VOLUMETRIC BUDGET FOR ENTIRE MODEL AT END OF TIME STEP   53, STRESS PERIOD   1
  ------------------------------------------------------------------------------

     CUMULATIVE VOLUMES      L**3       RATES FOR THIS TIME STEP      L**3/T
     ------------------                 ------------------------

           IN:                                      IN:
           ---                                      ---
             STORAGE =     3736120.2500               STORAGE =       53106.3633
       CONSTANT HEAD =           0.0000         CONSTANT HEAD =           0.0000
       RIVER LEAKAGE =      351963.6562         RIVER LEAKAGE =        3373.6824
            RECHARGE =           1.6453              RECHARGE =       2.6875E-04

            TOTAL IN =     4088085.7500              TOTAL IN =       56480.0469

          OUT:                                     OUT:
          ----                                     ----
             STORAGE =     2329764.2500               STORAGE =       16770.4668
       CONSTANT HEAD =           0.0000         CONSTANT HEAD =           0.0000
       RIVER LEAKAGE =     1757897.2500         RIVER LEAKAGE =       39692.3984
            RECHARGE =           0.0000              RECHARGE =           0.0000

           TOTAL OUT =     4087661.5000             TOTAL OUT =       56462.8672

            IN - OUT =         424.2500              IN - OUT =          17.1797

 PERCENT DISCREPANCY =           0.01     PERCENT DISCREPANCY =           0.03






         TIME SUMMARY AT END OF TIME STEP   53 IN STRESS PERIOD    1
                    SECONDS     MINUTES      HOURS       DAYS        YEARS
                    -----------------------------------------------------------
   TIME STEP LENGTH  86400.      1440.0      24.000      1.0000     2.73785E-03
 STRESS PERIOD TIME 4.57920E+06  76320.      1272.0      53.000     0.14511    
         TOTAL TIME 4.57920E+06  76320.      1272.0      53.000     0.14511    
1
 
 SOLVING FOR HEAD 
                                                   Max.-Head-Change                        Max.-Flux-Residual
  Residual-Control   Outer-Iter.   Inner-Iter.     Column Row Layer    Max.-Head-Change    Column Row Layer    Max.-Flux-Residual            L2-New               L2-Old           Solver-Max-Delh
          0                 1           2            11    6     1       0.8950983702E+02      12    8    1       0.3058345122E+04      0.1880243937E+05      0.6958461712E+02      0.8950983702E+02
          0                 2           2            11    6     1       0.6896951755E+03      10    6    1      -0.9351746444E+03      0.3047326992E+04      0.1880243937E+05      0.6896951755E+03
          0                 3           2            13    4     1       0.8659857796E+02      13    3    1      -0.1773287494E+03      0.3167430666E+03      0.3047326992E+04      0.8659857796E+02
          0                 4           2            13    4     1      -0.7478968417E+01      13    4    1      -0.1615161688E+02      0.2101091247E+02      0.3167430666E+03     -0.7478968417E+01
          0                 5           2            13    4     1      -0.3739521677E+00      13    4    1      -0.8075847746E+00      0.1180832104E+01      0.2101091247E+02     -0.3739521677E+00
          0                 6           2            13    4     1      -0.1869405617E-01      13    5    1       0.6427475531E-01      0.1054077487E+00      0.1180832104E+01     -0.1869405617E-01

    ------------------------------------------------
       NWT REQUIRED            6 OUTER ITERATIONS 
       AND A TOTAL OF         12 INNER ITERATIONS.
    ------------------------------------------------

 OUTPUT CONTROL FOR STRESS PERIOD    1   TIME STEP   54
    SAVE HEAD FOR ALL LAYERS
    SAVE DRAWDOWN FOR ALL LAYERS
    SAVE BUDGET
    PRINT BUDGET
 UBDSV1 SAVING "         STORAGE" ON UNIT   9 AT TIME STEP 54, STRESS PERIOD   1
 UBDSV2 SAVING "   CONSTANT HEAD" ON UNIT   9 AT TIME STEP 54, STRESS PERIOD   1
 UBDSV1 SAVING "FLOW RIGHT FACE " ON UNIT   9 AT TIME STEP 54, STRESS PERIOD   1
 UBDSV1 SAVING "FLOW FRONT FACE " ON UNIT   9 AT TIME STEP 54, STRESS PERIOD   1
 UBDSV4 SAVING "   RIVER LEAKAGE" ON UNIT   9 AT TIME STEP 54, STRESS PERIOD   1
 UBDSV3 SAVING "        RECHARGE" ON UNIT   9 AT TIME STEP 54, STRESS PERIOD   1

 HEAD WILL BE SAVED ON UNIT 5037 AT END OF TIME STEP   54, STRESS PERIOD    1

 DRAWDOWN WILL BE SAVED ON UNIT   38 AT END OF TIME STEP   54, STRESS PERIOD    1
1
  VOLUMETRIC BUDGET FOR ENTIRE MODEL AT END OF TIME STEP   54, STRESS PERIOD   1
  ------------------------------------------------------------------------------

     CUMULATIVE VOLUMES      L**3       RATES FOR THIS TIME STEP      L**3/T
     ------------------                 ------------------------

           IN:                                      IN:
           ---                                      ---
             STORAGE =     3763053.5000               STORAGE =       26933.3477
       CONSTANT HEAD =           0.0000         CONSTANT HEAD =           0.0000
       RIVER LEAKAGE =      355546.5312         RIVER LEAKAGE =        3582.8694
            RECHARGE =      248964.0469              RECHARGE =      248962.4062

            TOTAL IN =     4367564.0000              TOTAL IN =      279478.6250

          OUT:                                     OUT:
          ----                                     ----
             STORAGE =     2488564.2500               STORAGE =      158800.0625
       CONSTANT HEAD =           0.0000         CONSTANT HEAD =           0.0000
       RIVER LEAKAGE =     1878575.7500         RIVER LEAKAGE =      120678.5547
            RECHARGE =           0.0000              RECHARGE =           0.0000

           TOTAL OUT =     4367140.0000             TOTAL OUT =      279478.6250

            IN - OUT =         424.0000              IN - OUT =           0.0000

 PERCENT DISCREPANCY =           0.01     PERCENT DISCREPANCY =           0.00






         TIME SUMMARY AT END OF TIME STEP   54 IN STRESS PERIOD    1
                    SECONDS     MINUTES      HOURS       DAYS        YEARS
                    -----------------------------------------------------------
   TIME STEP LENGTH  86400.      1440.0      24.000      1.0000     2.73785E-03
 STRESS PERIOD TIME 4.66560E+06  77760.      1296.0      54.000     0.14784    
         TOTAL TIME 4.66560E+06  77760.      1296.0      54.000     0.14784    
1
 
 SOLVING FOR HEAD 
                                                   Max.-Head-Change                        Max.-Flux-Residual
  Residual-Control   Outer-Iter.   Inner-Iter.     Column Row Layer    Max.-Head-Change    Column Row Layer    Max.-Flux-Residual            L2-New               L2-Old           Solver-Max-Delh
          0                 1           2            13    4     1       0.3193279487E+03      17    6    1       0.1485064400E+04      0.9384428694E+04      0.1054077487E+00      0.3193279487E+03
          0                 2           2            13    4     1      -0.2757832459E+02      17    6    1      -0.1485084111E+03      0.9387543407E+03      0.9384428694E+04     -0.2757832459E+02
          0                 3           2            13    4     1      -0.1378930052E+01      17    6    1      -0.7425431464E+01      0.4693760995E+02      0.9387543407E+03     -0.1378930052E+01
          0                 4           2            13    4     1      -0.6893340400E-01      17    6    1      -0.3711971678E+00      0.2348081723E+01      0.4693760995E+02     -0.6893340400E-01

    ------------------------------------------------
       NWT REQUIRED            4 OUTER ITERATIONS 
       AND A TOTAL OF          8 INNER ITERATIONS.
    ------------------------------------------------

 OUTPUT CONTROL FOR STRESS PERIOD    1   TIME STEP   55
    SAVE HEAD FOR ALL LAYERS
    SAVE DRAWDOWN FOR ALL LAYERS
    SAVE BUDGET
    PRINT BUDGET
 UBDSV1 SAVING "         STORAGE" ON UNIT   9 AT TIME STEP 55, STRESS PERIOD   1
 UBDSV2 SAVING "   CONSTANT HEAD" ON UNIT   9 AT TIME STEP 55, STRESS PERIOD   1
 UBDSV1 SAVING "FLOW RIGHT FACE " ON UNIT   9 AT TIME STEP 55, STRESS PERIOD   1
 UBDSV1 SAVING "FLOW FRONT FACE " ON UNIT   9 AT TIME STEP 55, STRESS PERIOD   1
 UBDSV4 SAVING "   RIVER LEAKAGE" ON UNIT   9 AT TIME STEP 55, STRESS PERIOD   1
 UBDSV3 SAVING "        RECHARGE" ON UNIT   9 AT TIME STEP 55, STRESS PERIOD   1

 HEAD WILL BE SAVED ON UNIT 5037 AT END OF TIME STEP   55, STRESS PERIOD    1

 DRAWDOWN WILL BE SAVED ON UNIT   38 AT END OF TIME STEP   55, STRESS PERIOD    1
1
  VOLUMETRIC BUDGET FOR ENTIRE MODEL AT END OF TIME STEP   55, STRESS PERIOD   1
  ------------------------------------------------------------------------------

     CUMULATIVE VOLUMES      L**3       RATES FOR THIS TIME STEP      L**3/T
     ------------------                 ------------------------

           IN:                                      IN:
           ---                                      ---
             STORAGE =     3790909.5000               STORAGE =       27855.8828
       CONSTANT HEAD =           0.0000         CONSTANT HEAD =           0.0000
       RIVER LEAKAGE =      362933.9375         RIVER LEAKAGE =        7387.4004
            RECHARGE =      385092.6875              RECHARGE =      136128.6406

            TOTAL IN =     4538936.0000              TOTAL IN =      171371.9219

          OUT:                                     OUT:
          ----                                     ----
             STORAGE =     2576822.5000               STORAGE =       88258.3438
       CONSTANT HEAD =           0.0000         CONSTANT HEAD =           0.0000
       RIVER LEAKAGE =     1961690.7500         RIVER LEAKAGE =       83114.9375
            RECHARGE =           0.0000              RECHARGE =           0.0000

           TOTAL OUT =     4538513.0000             TOTAL OUT =      171373.2812

            IN - OUT =         423.0000              IN - OUT =          -1.3594

 PERCENT DISCREPANCY =           0.01     PERCENT DISCREPANCY =          -0.00






         TIME SUMMARY AT END OF TIME STEP   55 IN STRESS PERIOD    1
                    SECONDS     MINUTES      HOURS       DAYS        YEARS
                    -----------------------------------------------------------
   TIME STEP LENGTH  86400.      1440.0      24.000      1.0000     2.73785E-03
 STRESS PERIOD TIME 4.75200E+06  79200.      1320.0      55.000     0.15058    
         TOTAL TIME 4.75200E+06  79200.      1320.0      55.000     0.15058    
1
 
 SOLVING FOR HEAD 
                                                   Max.-Head-Change                        Max.-Flux-Residual
  Residual-Control   Outer-Iter.   Inner-Iter.     Column Row Layer    Max.-Head-Change    Column Row Layer    Max.-Flux-Residual            L2-New               L2-Old           Solver-Max-Delh
          0                 1           2            11    6     1      -0.6975596982E+02      25    6    1      -0.1215006175E+04      0.8092390305E+04      0.2348081723E+01     -0.6975596982E+02
          0                 2           2            11    6     1       0.6024379217E+01      25    6    1       0.1214972295E+03      0.8112481756E+03      0.8092390305E+04      0.6024379217E+01
          0                 3           2            11    6     1       0.3012219766E+00      25    6    1       0.6074833121E+01      0.4056313321E+02      0.8112481756E+03      0.3012219766E+00
          0                 4           2            11    6     1       0.1505823748E-01      25    6    1       0.3036806937E+00      0.2027764255E+01      0.4056313321E+02      0.1505823748E-01

    ------------------------------------------------
       NWT REQUIRED            4 OUTER ITERATIONS 
       AND A TOTAL OF          8 INNER ITERATIONS.
    ------------------------------------------------

 OUTPUT CONTROL FOR STRESS PERIOD    1   TIME STEP   56
    SAVE HEAD FOR ALL LAYERS
    SAVE DRAWDOWN FOR ALL LAYERS
    SAVE BUDGET
    PRINT BUDGET
 UBDSV1 SAVING "         STORAGE" ON UNIT   9 AT TIME STEP 56, STRESS PERIOD   1
 UBDSV2 SAVING "   CONSTANT HEAD" ON UNIT   9 AT TIME STEP 56, STRESS PERIOD   1
 UBDSV1 SAVING "FLOW RIGHT FACE " ON UNIT   9 AT TIME STEP 56, STRESS PERIOD   1
 UBDSV1 SAVING "FLOW FRONT FACE " ON UNIT   9 AT TIME STEP 56, STRESS PERIOD   1
 UBDSV4 SAVING "   RIVER LEAKAGE" ON UNIT   9 AT TIME STEP 56, STRESS PERIOD   1
 UBDSV3 SAVING "        RECHARGE" ON UNIT   9 AT TIME STEP 56, STRESS PERIOD   1

 HEAD WILL BE SAVED ON UNIT 5037 AT END OF TIME STEP   56, STRESS PERIOD    1

 DRAWDOWN WILL BE SAVED ON UNIT   38 AT END OF TIME STEP   56, STRESS PERIOD    1
1
  VOLUMETRIC BUDGET FOR ENTIRE MODEL AT END OF TIME STEP   56, STRESS PERIOD   1
  ------------------------------------------------------------------------------

     CUMULATIVE VOLUMES      L**3       RATES FOR THIS TIME STEP      L**3/T
     ------------------                 ------------------------

           IN:                                      IN:
           ---                                      ---
             STORAGE =     3837307.5000               STORAGE =       46397.8828
       CONSTANT HEAD =           0.0000         CONSTANT HEAD =           0.0000
       RIVER LEAKAGE =      367642.9688         RIVER LEAKAGE =        4709.0464
            RECHARGE =      457821.8750              RECHARGE =       72729.1953

            TOTAL IN =     4662772.5000              TOTAL IN =      123836.1250

          OUT:                                     OUT:
          ----                                     ----
             STORAGE =     2619619.5000               STORAGE =       42796.9883
       CONSTANT HEAD =           0.0000         CONSTANT HEAD =           0.0000
       RIVER LEAKAGE =     2042729.2500         RIVER LEAKAGE =       81038.4375
            RECHARGE =           0.0000              RECHARGE =           0.0000

           TOTAL OUT =     4662349.0000             TOTAL OUT =      123835.4219

            IN - OUT =         423.5000              IN - OUT =           0.7031

 PERCENT DISCREPANCY =           0.01     PERCENT DISCREPANCY =           0.00






         TIME SUMMARY AT END OF TIME STEP   56 IN STRESS PERIOD    1
                    SECONDS     MINUTES      HOURS       DAYS        YEARS
                    -----------------------------------------------------------
   TIME STEP LENGTH  86400.      1440.0      24.000      1.0000     2.73785E-03
 STRESS PERIOD TIME 4.83840E+06  80640.      1344.0      56.000     0.15332    
         TOTAL TIME 4.83840E+06  80640.      1344.0      56.000     0.15332    
1
 
 SOLVING FOR HEAD 
                                                   Max.-Head-Change                        Max.-Flux-Residual
  Residual-Control   Outer-Iter.   Inner-Iter.     Column Row Layer    Max.-Head-Change    Column Row Layer    Max.-Flux-Residual            L2-New               L2-Old           Solver-Max-Delh
          0                 1           2            11    6     1      -0.1511335071E+03      36   13    1      -0.9610840919E+03      0.7144765668E+04      0.2027764255E+01     -0.1511335071E+03
          0                 2           2            11    6     1       0.1305243972E+02      27    6    1       0.3005109486E+03      0.7741037766E+03      0.7144765668E+04      0.1305243972E+02
          0                 3           2            11    6     1       0.6526285243E+00      27    6    1      -0.3184702074E+02      0.5153886587E+02      0.7741037766E+03      0.6526285243E+00
          0                 4           2            11    6     1       0.3262522681E-01      27    6    1      -0.1592341460E+01      0.2576659506E+01      0.5153886587E+02      0.3262522681E-01

    ------------------------------------------------
       NWT REQUIRED            4 OUTER ITERATIONS 
       AND A TOTAL OF          8 INNER ITERATIONS.
    ------------------------------------------------

 OUTPUT CONTROL FOR STRESS PERIOD    1   TIME STEP   57
    SAVE HEAD FOR ALL LAYERS
    SAVE DRAWDOWN FOR ALL LAYERS
    SAVE BUDGET
    PRINT BUDGET
 UBDSV1 SAVING "         STORAGE" ON UNIT   9 AT TIME STEP 57, STRESS PERIOD   1
 UBDSV2 SAVING "   CONSTANT HEAD" ON UNIT   9 AT TIME STEP 57, STRESS PERIOD   1
 UBDSV1 SAVING "FLOW RIGHT FACE " ON UNIT   9 AT TIME STEP 57, STRESS PERIOD   1
 UBDSV1 SAVING "FLOW FRONT FACE " ON UNIT   9 AT TIME STEP 57, STRESS PERIOD   1
 UBDSV4 SAVING "   RIVER LEAKAGE" ON UNIT   9 AT TIME STEP 57, STRESS PERIOD   1
 UBDSV3 SAVING "        RECHARGE" ON UNIT   9 AT TIME STEP 57, STRESS PERIOD   1

 HEAD WILL BE SAVED ON UNIT 5037 AT END OF TIME STEP   57, STRESS PERIOD    1

 DRAWDOWN WILL BE SAVED ON UNIT   38 AT END OF TIME STEP   57, STRESS PERIOD    1
1
  VOLUMETRIC BUDGET FOR ENTIRE MODEL AT END OF TIME STEP   57, STRESS PERIOD   1
  ------------------------------------------------------------------------------

     CUMULATIVE VOLUMES      L**3       RATES FOR THIS TIME STEP      L**3/T
     ------------------                 ------------------------

           IN:                                      IN:
           ---                                      ---
             STORAGE =     3890220.0000               STORAGE =       52912.6094
       CONSTANT HEAD =           0.0000         CONSTANT HEAD =           0.0000
       RIVER LEAKAGE =      371218.1562         RIVER LEAKAGE =        3575.2014
            RECHARGE =      496738.0312              RECHARGE =       38916.1484

            TOTAL IN =     4758176.0000              TOTAL IN =       95403.9609

          OUT:                                     OUT:
          ----                                     ----
             STORAGE =     2648834.2500               STORAGE =       29214.7852
       CONSTANT HEAD =           0.0000         CONSTANT HEAD =           0.0000
       RIVER LEAKAGE =     2108917.5000         RIVER LEAKAGE =       66188.2578
            RECHARGE =           0.0000              RECHARGE =           0.0000

           TOTAL OUT =     4757752.0000             TOTAL OUT =       95403.0469

            IN - OUT =         424.0000              IN - OUT =           0.9141

 PERCENT DISCREPANCY =           0.01     PERCENT DISCREPANCY =           0.00






         TIME SUMMARY AT END OF TIME STEP   57 IN STRESS PERIOD    1
                    SECONDS     MINUTES      HOURS       DAYS        YEARS
                    -----------------------------------------------------------
   TIME STEP LENGTH  86400.      1440.0      24.000      1.0000     2.73785E-03
 STRESS PERIOD TIME 4.92480E+06  82080.      1368.0      57.000     0.15606    
         TOTAL TIME 4.92480E+06  82080.      1368.0      57.000     0.15606    
1
 
 SOLVING FOR HEAD 
                                                   Max.-Head-Change                        Max.-Flux-Residual
  Residual-Control   Outer-Iter.   Inner-Iter.     Column Row Layer    Max.-Head-Change    Column Row Layer    Max.-Flux-Residual            L2-New               L2-Old           Solver-Max-Delh
          0                 1           2            11    6     1      -0.1599580063E+03      27    4    1       0.5782384279E+03      0.4472747675E+04      0.2576659506E+01     -0.1599580063E+03
          0                 2           2            11    6     1       0.1381455563E+02      14    3    1       0.2165855006E+03      0.4971870293E+03      0.4472747675E+04      0.1381455563E+02
          1                 2           0            11    6     1       0.9670188775E+01      12    3    1       0.2170269530E+04      0.2170514932E+04      0.4971870293E+03      0.1381455563E+02
          2                 2           0            11    6     1       0.6769132027E+01      12    3    1       0.1510877568E+04      0.1519116863E+04      0.2170514932E+04      0.1381455563E+02
          3                 2           0            11    6     1       0.4738392338E+01      12    3    1       0.1049241990E+04      0.1080761671E+04      0.1519116863E+04      0.1381455563E+02
          4                 2           0            11    6     1       0.3316874580E+01      12    3    1       0.7260670971E+03      0.7976824821E+03      0.1080761671E+04      0.1381455563E+02
          5                 2           0            11    6     1       0.2321812167E+01      12    3    1       0.4998299789E+03      0.6280551211E+03      0.7976824821E+03      0.1381455563E+02
          0                 3           2            11    6     1       0.1160895621E+02      12    3    1       0.3414567973E+03      0.5376417338E+03      0.6280551211E+03      0.1160895621E+02
          0                 4           2            11    6     1       0.5803375354E+00      12    3    1       0.6083733512E+02      0.6655591309E+02      0.5376417338E+03      0.5803375354E+00
          0                 5           2            11    6     1       0.2900556063E-01      12    3    1       0.1080962846E+02      0.1089344887E+02      0.6655591309E+02      0.2900556063E-01

    ------------------------------------------------
       NWT REQUIRED            5 OUTER ITERATIONS 
       AND A TOTAL OF         10 INNER ITERATIONS.
    ------------------------------------------------

 OUTPUT CONTROL FOR STRESS PERIOD    1   TIME STEP   58
    SAVE HEAD FOR ALL LAYERS
    SAVE DRAWDOWN FOR ALL LAYERS
    SAVE BUDGET
    PRINT BUDGET
 UBDSV1 SAVING "         STORAGE" ON UNIT   9 AT TIME STEP 58, STRESS PERIOD   1
 UBDSV2 SAVING "   CONSTANT HEAD" ON UNIT   9 AT TIME STEP 58, STRESS PERIOD   1
 UBDSV1 SAVING "FLOW RIGHT FACE " ON UNIT   9 AT TIME STEP 58, STRESS PERIOD   1
 UBDSV1 SAVING "FLOW FRONT FACE " ON UNIT   9 AT TIME STEP 58, STRESS PERIOD   1
 UBDSV4 SAVING "   RIVER LEAKAGE" ON UNIT   9 AT TIME STEP 58, STRESS PERIOD   1
 UBDSV3 SAVING "        RECHARGE" ON UNIT   9 AT TIME STEP 58, STRESS PERIOD   1

 HEAD WILL BE SAVED ON UNIT 5037 AT END OF TIME STEP   58, STRESS PERIOD    1

 DRAWDOWN WILL BE SAVED ON UNIT   38 AT END OF TIME STEP   58, STRESS PERIOD    1
1
  VOLUMETRIC BUDGET FOR ENTIRE MODEL AT END OF TIME STEP   58, STRESS PERIOD   1
  ------------------------------------------------------------------------------

     CUMULATIVE VOLUMES      L**3       RATES FOR THIS TIME STEP      L**3/T
     ------------------                 ------------------------

           IN:                                      IN:
           ---                                      ---
             STORAGE =     3936537.7500               STORAGE =       46317.7930
       CONSTANT HEAD =           0.0000         CONSTANT HEAD =           0.0000
       RIVER LEAKAGE =      375540.9375         RIVER LEAKAGE =        4322.7734
            RECHARGE =      517737.8125              RECHARGE =       20999.7793

            TOTAL IN =     4829816.5000              TOTAL IN =       71640.3438

          OUT:                                     OUT:
          ----                                     ----
             STORAGE =     2671748.7500               STORAGE =       22914.3848
       CONSTANT HEAD =           0.0000         CONSTANT HEAD =           0.0000
       RIVER LEAKAGE =     2157641.0000         RIVER LEAKAGE =       48723.6250
            RECHARGE =           0.0000              RECHARGE =           0.0000

           TOTAL OUT =     4829390.0000             TOTAL OUT =       71638.0078

            IN - OUT =         426.5000              IN - OUT =           2.3359

 PERCENT DISCREPANCY =           0.01     PERCENT DISCREPANCY =           0.00






         TIME SUMMARY AT END OF TIME STEP   58 IN STRESS PERIOD    1
                    SECONDS     MINUTES      HOURS       DAYS        YEARS
                    -----------------------------------------------------------
   TIME STEP LENGTH  86400.      1440.0      24.000      1.0000     2.73785E-03
 STRESS PERIOD TIME 5.01120E+06  83520.      1392.0      58.000     0.15880    
         TOTAL TIME 5.01120E+06  83520.      1392.0      58.000     0.15880    
1
 
 SOLVING FOR HEAD 
                                                   Max.-Head-Change                        Max.-Flux-Residual
  Residual-Control   Outer-Iter.   Inner-Iter.     Column Row Layer    Max.-Head-Change    Column Row Layer    Max.-Flux-Residual            L2-New               L2-Old           Solver-Max-Delh
          0                 1           2            11    6     1      -0.1409528748E+03      29    2    1      -0.5630644378E+03      0.3818846495E+04      0.1089344887E+02     -0.1409528748E+03
          0                 2           2            11    6     1       0.1217320334E+02      12    3    1       0.1868138642E+03      0.4273455474E+03      0.3818846495E+04      0.1217320334E+02
          0                 3           2            11    6     1       0.6086662654E+00      12    3    1      -0.1902246998E+02      0.2837214520E+02      0.4273455474E+03      0.6086662654E+00
          0                 4           2            11    6     1       0.3042753147E-01      12    3    1      -0.9510083207E+00      0.1418355419E+01      0.2837214520E+02      0.3042753147E-01

    ------------------------------------------------
       NWT REQUIRED            4 OUTER ITERATIONS 
       AND A TOTAL OF          8 INNER ITERATIONS.
    ------------------------------------------------

 OUTPUT CONTROL FOR STRESS PERIOD    1   TIME STEP   59
    SAVE HEAD FOR ALL LAYERS
    SAVE DRAWDOWN FOR ALL LAYERS
    SAVE BUDGET
    PRINT BUDGET
 UBDSV1 SAVING "         STORAGE" ON UNIT   9 AT TIME STEP 59, STRESS PERIOD   1
 UBDSV2 SAVING "   CONSTANT HEAD" ON UNIT   9 AT TIME STEP 59, STRESS PERIOD   1
 UBDSV1 SAVING "FLOW RIGHT FACE " ON UNIT   9 AT TIME STEP 59, STRESS PERIOD   1
 UBDSV1 SAVING "FLOW FRONT FACE " ON UNIT   9 AT TIME STEP 59, STRESS PERIOD   1
 UBDSV4 SAVING "   RIVER LEAKAGE" ON UNIT   9 AT TIME STEP 59, STRESS PERIOD   1
 UBDSV3 SAVING "        RECHARGE" ON UNIT   9 AT TIME STEP 59, STRESS PERIOD   1

 HEAD WILL BE SAVED ON UNIT 5037 AT END OF TIME STEP   59, STRESS PERIOD    1

 DRAWDOWN WILL BE SAVED ON UNIT   38 AT END OF TIME STEP   59, STRESS PERIOD    1
1
  VOLUMETRIC BUDGET FOR ENTIRE MODEL AT END OF TIME STEP   59, STRESS PERIOD   1
  ------------------------------------------------------------------------------

     CUMULATIVE VOLUMES      L**3       RATES FOR THIS TIME STEP      L**3/T
     ------------------                 ------------------------

           IN:                                      IN:
           ---                                      ---
             STORAGE =     3979153.5000               STORAGE =       42615.7266
       CONSTANT HEAD =           0.0000         CONSTANT HEAD =           0.0000
       RIVER LEAKAGE =      380223.5938         RIVER LEAKAGE =        4682.6499
            RECHARGE =      533771.5000              RECHARGE =       16033.6738

            TOTAL IN =     4893148.5000              TOTAL IN =       63332.0469

          OUT:                                     OUT:
          ----                                     ----
             STORAGE =     2692606.0000               STORAGE =       20857.3066
       CONSTANT HEAD =           0.0000         CONSTANT HEAD =           0.0000
       RIVER LEAKAGE =     2200115.5000         RIVER LEAKAGE =       42474.4023
            RECHARGE =           0.0000              RECHARGE =           0.0000

           TOTAL OUT =     4892721.5000             TOTAL OUT =       63331.7109

            IN - OUT =         427.0000              IN - OUT =           0.3359

 PERCENT DISCREPANCY =           0.01     PERCENT DISCREPANCY =           0.00






         TIME SUMMARY AT END OF TIME STEP   59 IN STRESS PERIOD    1
                    SECONDS     MINUTES      HOURS       DAYS        YEARS
                    -----------------------------------------------------------
   TIME STEP LENGTH  86400.      1440.0      24.000      1.0000     2.73785E-03
 STRESS PERIOD TIME 5.09760E+06  84960.      1416.0      59.000     0.16153    
         TOTAL TIME 5.09760E+06  84960.      1416.0      59.000     0.16153    
1
 
 SOLVING FOR HEAD 
                                                   Max.-Head-Change                        Max.-Flux-Residual
  Residual-Control   Outer-Iter.   Inner-Iter.     Column Row Layer    Max.-Head-Change    Column Row Layer    Max.-Flux-Residual            L2-New               L2-Old           Solver-Max-Delh
          0                 1           2            11    6     1      -0.1143830170E+03      29    2    1      -0.5588110938E+03      0.3619532849E+04      0.1418355419E+01     -0.1143830170E+03
          0                 2           2            11    6     1       0.9878533668E+01      30    5    1       0.2116279860E+03      0.4253134428E+03      0.3619532849E+04      0.9878533668E+01
          0                 3           2            11    6     1       0.4939316322E+00      30    5    1      -0.2162507607E+02      0.2851311699E+02      0.4253134428E+03      0.4939316322E+00
          0                 4           2            11    6     1       0.2469188969E-01      30    5    1      -0.1081258029E+01      0.1425538721E+01      0.2851311699E+02      0.2469188969E-01

    ------------------------------------------------
       NWT REQUIRED            4 OUTER ITERATIONS 
       AND A TOTAL OF          8 INNER ITERATIONS.
    ------------------------------------------------

 OUTPUT CONTROL FOR STRESS PERIOD    1   TIME STEP   60
    SAVE HEAD FOR ALL LAYERS
    SAVE DRAWDOWN FOR ALL LAYERS
    SAVE BUDGET
    PRINT BUDGET
 UBDSV1 SAVING "         STORAGE" ON UNIT   9 AT TIME STEP 60, STRESS PERIOD   1
 UBDSV2 SAVING "   CONSTANT HEAD" ON UNIT   9 AT TIME STEP 60, STRESS PERIOD   1
 UBDSV1 SAVING "FLOW RIGHT FACE " ON UNIT   9 AT TIME STEP 60, STRESS PERIOD   1
 UBDSV1 SAVING "FLOW FRONT FACE " ON UNIT   9 AT TIME STEP 60, STRESS PERIOD   1
 UBDSV4 SAVING "   RIVER LEAKAGE" ON UNIT   9 AT TIME STEP 60, STRESS PERIOD   1
 UBDSV3 SAVING "        RECHARGE" ON UNIT   9 AT TIME STEP 60, STRESS PERIOD   1

 HEAD WILL BE SAVED ON UNIT 5037 AT END OF TIME STEP   60, STRESS PERIOD    1

 DRAWDOWN WILL BE SAVED ON UNIT   38 AT END OF TIME STEP   60, STRESS PERIOD    1
1
  VOLUMETRIC BUDGET FOR ENTIRE MODEL AT END OF TIME STEP   60, STRESS PERIOD   1
  ------------------------------------------------------------------------------

     CUMULATIVE VOLUMES      L**3       RATES FOR THIS TIME STEP      L**3/T
     ------------------                 ------------------------

           IN:                                      IN:
           ---                                      ---
             STORAGE =     4019886.2500               STORAGE =       40732.6758
       CONSTANT HEAD =           0.0000         CONSTANT HEAD =           0.0000
       RIVER LEAKAGE =      385044.3750         RIVER LEAKAGE =        4820.7920
            RECHARGE =      548226.5625              RECHARGE =       14455.0674

            TOTAL IN =     4953157.0000              TOTAL IN =       60008.5352

          OUT:                                     OUT:
          ----                                     ----
             STORAGE =     2712388.5000               STORAGE =       19782.4766
       CONSTANT HEAD =           0.0000         CONSTANT HEAD =           0.0000
       RIVER LEAKAGE =     2240341.2500         RIVER LEAKAGE =       40225.7930
            RECHARGE =           0.0000              RECHARGE =           0.0000

           TOTAL OUT =     4952730.0000             TOTAL OUT =       60008.2695

            IN - OUT =         427.0000              IN - OUT =           0.2656

 PERCENT DISCREPANCY =           0.01     PERCENT DISCREPANCY =           0.00






         TIME SUMMARY AT END OF TIME STEP   60 IN STRESS PERIOD    1
                    SECONDS     MINUTES      HOURS       DAYS        YEARS
                    -----------------------------------------------------------
   TIME STEP LENGTH  86400.      1440.0      24.000      1.0000     2.73785E-03
 STRESS PERIOD TIME 5.18400E+06  86400.      1440.0      60.000     0.16427    
         TOTAL TIME 5.18400E+06  86400.      1440.0      60.000     0.16427    
1
 
 SOLVING FOR HEAD 
                                                   Max.-Head-Change                        Max.-Flux-Residual
  Residual-Control   Outer-Iter.   Inner-Iter.     Column Row Layer    Max.-Head-Change    Column Row Layer    Max.-Flux-Residual            L2-New               L2-Old           Solver-Max-Delh
          0                 1           2            11    6     1      -0.8873514455E+02      29    2    1      -0.5546259499E+03      0.3590822463E+04      0.1425538721E+01     -0.8873514455E+02
          0                 2           2            11    6     1       0.7663490281E+01       5    8    1       0.6743608448E+02      0.3706522282E+03      0.3590822463E+04      0.7663490281E+01
          0                 3           2            11    6     1       0.3831783531E+00      18   18    1       0.3639095715E+02      0.4131998356E+02      0.3706522282E+03      0.3831783531E+00
          0                 4           2            11    6     1       0.1915527780E-01      18   18    1       0.6459058602E+01      0.6532881461E+01      0.4131998356E+02      0.1915527780E-01

    ------------------------------------------------
       NWT REQUIRED            4 OUTER ITERATIONS 
       AND A TOTAL OF          8 INNER ITERATIONS.
    ------------------------------------------------

 OUTPUT CONTROL FOR STRESS PERIOD    1   TIME STEP   61
    SAVE HEAD FOR ALL LAYERS
    SAVE DRAWDOWN FOR ALL LAYERS
    SAVE BUDGET
    PRINT BUDGET
 UBDSV1 SAVING "         STORAGE" ON UNIT   9 AT TIME STEP 61, STRESS PERIOD   1
 UBDSV2 SAVING "   CONSTANT HEAD" ON UNIT   9 AT TIME STEP 61, STRESS PERIOD   1
 UBDSV1 SAVING "FLOW RIGHT FACE " ON UNIT   9 AT TIME STEP 61, STRESS PERIOD   1
 UBDSV1 SAVING "FLOW FRONT FACE " ON UNIT   9 AT TIME STEP 61, STRESS PERIOD   1
 UBDSV4 SAVING "   RIVER LEAKAGE" ON UNIT   9 AT TIME STEP 61, STRESS PERIOD   1
 UBDSV3 SAVING "        RECHARGE" ON UNIT   9 AT TIME STEP 61, STRESS PERIOD   1

 HEAD WILL BE SAVED ON UNIT 5037 AT END OF TIME STEP   61, STRESS PERIOD    1

 DRAWDOWN WILL BE SAVED ON UNIT   38 AT END OF TIME STEP   61, STRESS PERIOD    1
1
  VOLUMETRIC BUDGET FOR ENTIRE MODEL AT END OF TIME STEP   61, STRESS PERIOD   1
  ------------------------------------------------------------------------------

     CUMULATIVE VOLUMES      L**3       RATES FOR THIS TIME STEP      L**3/T
     ------------------                 ------------------------

           IN:                                      IN:
           ---                                      ---
             STORAGE =     4062147.2500               STORAGE =       42261.0117
       CONSTANT HEAD =           0.0000         CONSTANT HEAD =           0.0000
       RIVER LEAKAGE =      390114.5625         RIVER LEAKAGE =        5070.1948
            RECHARGE =      556497.6875              RECHARGE =        8271.1221

            TOTAL IN =     5008759.5000              TOTAL IN =       55602.3281

          OUT:                                     OUT:
          ----                                     ----
             STORAGE =     2730209.5000               STORAGE =       17820.8809
       CONSTANT HEAD =           0.0000         CONSTANT HEAD =           0.0000
       RIVER LEAKAGE =     2278121.2500         RIVER LEAKAGE =       37779.9805
            RECHARGE =           0.0000              RECHARGE =           0.0000

           TOTAL OUT =     5008331.0000             TOTAL OUT =       55600.8594

            IN - OUT =         428.5000              IN - OUT =           1.4688

 PERCENT DISCREPANCY =           0.01     PERCENT DISCREPANCY =           0.00






         TIME SUMMARY AT END OF TIME STEP   61 IN STRESS PERIOD    1
                    SECONDS     MINUTES      HOURS       DAYS        YEARS
                    -----------------------------------------------------------
   TIME STEP LENGTH  86400.      1440.0      24.000      1.0000     2.73785E-03
 STRESS PERIOD TIME 5.27040E+06  87840.      1464.0      61.000     0.16701    
         TOTAL TIME 5.27040E+06  87840.      1464.0      61.000     0.16701    
1
 
 SOLVING FOR HEAD 
                                                   Max.-Head-Change                        Max.-Flux-Residual
  Residual-Control   Outer-Iter.   Inner-Iter.     Column Row Layer    Max.-Head-Change    Column Row Layer    Max.-Flux-Residual            L2-New               L2-Old           Solver-Max-Delh
          0                 1           2            11    6     1      -0.6699196238E+02      29    2    1      -0.5504910136E+03      0.3559186523E+04      0.6532881461E+01     -0.6699196238E+02
          0                 2           2            11    6     1       0.5785670032E+01      18   18    1       0.1870068108E+03      0.4143559175E+03      0.3559186523E+04      0.5785670032E+01
          0                 3           2            11    6     1       0.2892863999E+00      18   18    1      -0.1870136144E+02      0.2760510193E+02      0.4143559175E+03      0.2892863999E+00
          0                 4           2            11    6     1       0.1446157202E-01      18   18    1      -0.9350726693E+00      0.1380134572E+01      0.2760510193E+02      0.1446157202E-01

    ------------------------------------------------
       NWT REQUIRED            4 OUTER ITERATIONS 
       AND A TOTAL OF          8 INNER ITERATIONS.
    ------------------------------------------------

 OUTPUT CONTROL FOR STRESS PERIOD    1   TIME STEP   62
    SAVE HEAD FOR ALL LAYERS
    SAVE DRAWDOWN FOR ALL LAYERS
    SAVE BUDGET
    PRINT BUDGET
 UBDSV1 SAVING "         STORAGE" ON UNIT   9 AT TIME STEP 62, STRESS PERIOD   1
 UBDSV2 SAVING "   CONSTANT HEAD" ON UNIT   9 AT TIME STEP 62, STRESS PERIOD   1
 UBDSV1 SAVING "FLOW RIGHT FACE " ON UNIT   9 AT TIME STEP 62, STRESS PERIOD   1
 UBDSV1 SAVING "FLOW FRONT FACE " ON UNIT   9 AT TIME STEP 62, STRESS PERIOD   1
 UBDSV4 SAVING "   RIVER LEAKAGE" ON UNIT   9 AT TIME STEP 62, STRESS PERIOD   1
 UBDSV3 SAVING "        RECHARGE" ON UNIT   9 AT TIME STEP 62, STRESS PERIOD   1

 HEAD WILL BE SAVED ON UNIT 5037 AT END OF TIME STEP   62, STRESS PERIOD    1

 DRAWDOWN WILL BE SAVED ON UNIT   38 AT END OF TIME STEP   62, STRESS PERIOD    1
1
  VOLUMETRIC BUDGET FOR ENTIRE MODEL AT END OF TIME STEP   62, STRESS PERIOD   1
  ------------------------------------------------------------------------------

     CUMULATIVE VOLUMES      L**3       RATES FOR THIS TIME STEP      L**3/T
     ------------------                 ------------------------

           IN:                                      IN:
           ---                                      ---
             STORAGE =     4104840.2500               STORAGE =       42692.9922
       CONSTANT HEAD =           0.0000         CONSTANT HEAD =           0.0000
       RIVER LEAKAGE =      395360.5000         RIVER LEAKAGE =        5245.9307
            RECHARGE =      561282.9375              RECHARGE =        4785.2485

            TOTAL IN =     5061484.0000              TOTAL IN =       52724.1719

          OUT:                                     OUT:
          ----                                     ----
             STORAGE =     2746801.2500               STORAGE =       16591.8711
       CONSTANT HEAD =           0.0000         CONSTANT HEAD =           0.0000
       RIVER LEAKAGE =     2314253.2500         RIVER LEAKAGE =       36132.0000
            RECHARGE =           0.0000              RECHARGE =           0.0000

           TOTAL OUT =     5061054.5000             TOTAL OUT =       52723.8711

            IN - OUT =         429.5000              IN - OUT =           0.3008

 PERCENT DISCREPANCY =           0.01     PERCENT DISCREPANCY =           0.00






         TIME SUMMARY AT END OF TIME STEP   62 IN STRESS PERIOD    1
                    SECONDS     MINUTES      HOURS       DAYS        YEARS
                    -----------------------------------------------------------
   TIME STEP LENGTH  86400.      1440.0      24.000      1.0000     2.73785E-03
 STRESS PERIOD TIME 5.35680E+06  89280.      1488.0      62.000     0.16975    
         TOTAL TIME 5.35680E+06  89280.      1488.0      62.000     0.16975    
1
 
 SOLVING FOR HEAD 
                                                   Max.-Head-Change                        Max.-Flux-Residual
  Residual-Control   Outer-Iter.   Inner-Iter.     Column Row Layer    Max.-Head-Change    Column Row Layer    Max.-Flux-Residual            L2-New               L2-Old           Solver-Max-Delh
          0                 1           2            11    6     1      -0.4970419187E+02      29    2    1      -0.5464031505E+03      0.3528214770E+04      0.1380134572E+01     -0.4970419187E+02
          0                 2           2            11    6     1       0.4292634898E+01      31    2    1       0.1193070281E+03      0.3714129080E+03      0.3528214770E+04      0.4292634898E+01
          0                 3           2            11    6     1       0.2146338951E+00      31    2    1      -0.1196847658E+02      0.2165130932E+02      0.3714129080E+03      0.2146338951E+00
          0                 4           2            11    6     1       0.1072965592E-01      31    2    1      -0.5984190262E+00      0.1082413046E+01      0.2165130932E+02      0.1072965592E-01

    ------------------------------------------------
       NWT REQUIRED            4 OUTER ITERATIONS 
       AND A TOTAL OF          8 INNER ITERATIONS.
    ------------------------------------------------

 OUTPUT CONTROL FOR STRESS PERIOD    1   TIME STEP   63
    SAVE HEAD FOR ALL LAYERS
    SAVE DRAWDOWN FOR ALL LAYERS
    SAVE BUDGET
    PRINT BUDGET
 UBDSV1 SAVING "         STORAGE" ON UNIT   9 AT TIME STEP 63, STRESS PERIOD   1
 UBDSV2 SAVING "   CONSTANT HEAD" ON UNIT   9 AT TIME STEP 63, STRESS PERIOD   1
 UBDSV1 SAVING "FLOW RIGHT FACE " ON UNIT   9 AT TIME STEP 63, STRESS PERIOD   1
 UBDSV1 SAVING "FLOW FRONT FACE " ON UNIT   9 AT TIME STEP 63, STRESS PERIOD   1
 UBDSV4 SAVING "   RIVER LEAKAGE" ON UNIT   9 AT TIME STEP 63, STRESS PERIOD   1
 UBDSV3 SAVING "        RECHARGE" ON UNIT   9 AT TIME STEP 63, STRESS PERIOD   1

 HEAD WILL BE SAVED ON UNIT 5037 AT END OF TIME STEP   63, STRESS PERIOD    1

 DRAWDOWN WILL BE SAVED ON UNIT   38 AT END OF TIME STEP   63, STRESS PERIOD    1
1
  VOLUMETRIC BUDGET FOR ENTIRE MODEL AT END OF TIME STEP   63, STRESS PERIOD   1
  ------------------------------------------------------------------------------

     CUMULATIVE VOLUMES      L**3       RATES FOR THIS TIME STEP      L**3/T
     ------------------                 ------------------------

           IN:                                      IN:
           ---                                      ---
             STORAGE =     4147479.5000               STORAGE =       42639.3164
       CONSTANT HEAD =           0.0000         CONSTANT HEAD =           0.0000
       RIVER LEAKAGE =      400713.5312         RIVER LEAKAGE =        5353.0239
            RECHARGE =      564161.8125              RECHARGE =        2878.8657

            TOTAL IN =     5112355.0000              TOTAL IN =       50871.2070

          OUT:                                     OUT:
          ----                                     ----
             STORAGE =     2762533.5000               STORAGE =       15732.1426
       CONSTANT HEAD =           0.0000         CONSTANT HEAD =           0.0000
       RIVER LEAKAGE =     2349392.0000         RIVER LEAKAGE =       35138.7305
            RECHARGE =           0.0000              RECHARGE =           0.0000

           TOTAL OUT =     5111925.5000             TOTAL OUT =       50870.8750

            IN - OUT =         429.5000              IN - OUT =           0.3320

 PERCENT DISCREPANCY =           0.01     PERCENT DISCREPANCY =           0.00






         TIME SUMMARY AT END OF TIME STEP   63 IN STRESS PERIOD    1
                    SECONDS     MINUTES      HOURS       DAYS        YEARS
                    -----------------------------------------------------------
   TIME STEP LENGTH  86400.      1440.0      24.000      1.0000     2.73785E-03
 STRESS PERIOD TIME 5.44320E+06  90720.      1512.0      63.000     0.17248    
         TOTAL TIME 5.44320E+06  90720.      1512.0      63.000     0.17248    
1
 
 SOLVING FOR HEAD 
                                                   Max.-Head-Change                        Max.-Flux-Residual
  Residual-Control   Outer-Iter.   Inner-Iter.     Column Row Layer    Max.-Head-Change    Column Row Layer    Max.-Flux-Residual            L2-New               L2-Old           Solver-Max-Delh
          0                 1           2            11    6     1      -0.3645423469E+02      39   16    1      -0.5475647442E+03      0.3499728927E+04      0.1082413046E+01     -0.3645423469E+02
          0                 2           2            11    6     1       0.3148320365E+01      39   16    1       0.5471102283E+02      0.3503559428E+03      0.3499728927E+04      0.3148320365E+01
          0                 3           2            11    6     1       0.1574175952E+00      16   17    1      -0.4039558198E+02      0.4399431750E+02      0.3503559428E+03      0.1574175952E+00
          0                 4           2            11    6     1       0.7869384431E-02      16   17    1      -0.2019418882E+01      0.2199315363E+01      0.4399431750E+02      0.7869384431E-02

    ------------------------------------------------
       NWT REQUIRED            4 OUTER ITERATIONS 
       AND A TOTAL OF          8 INNER ITERATIONS.
    ------------------------------------------------

 OUTPUT CONTROL FOR STRESS PERIOD    1   TIME STEP   64
    SAVE HEAD FOR ALL LAYERS
    SAVE DRAWDOWN FOR ALL LAYERS
    SAVE BUDGET
    PRINT BUDGET
 UBDSV1 SAVING "         STORAGE" ON UNIT   9 AT TIME STEP 64, STRESS PERIOD   1
 UBDSV2 SAVING "   CONSTANT HEAD" ON UNIT   9 AT TIME STEP 64, STRESS PERIOD   1
 UBDSV1 SAVING "FLOW RIGHT FACE " ON UNIT   9 AT TIME STEP 64, STRESS PERIOD   1
 UBDSV1 SAVING "FLOW FRONT FACE " ON UNIT   9 AT TIME STEP 64, STRESS PERIOD   1
 UBDSV4 SAVING "   RIVER LEAKAGE" ON UNIT   9 AT TIME STEP 64, STRESS PERIOD   1
 UBDSV3 SAVING "        RECHARGE" ON UNIT   9 AT TIME STEP 64, STRESS PERIOD   1

 HEAD WILL BE SAVED ON UNIT 5037 AT END OF TIME STEP   64, STRESS PERIOD    1

 DRAWDOWN WILL BE SAVED ON UNIT   38 AT END OF TIME STEP   64, STRESS PERIOD    1
1
  VOLUMETRIC BUDGET FOR ENTIRE MODEL AT END OF TIME STEP   64, STRESS PERIOD   1
  ------------------------------------------------------------------------------

     CUMULATIVE VOLUMES      L**3       RATES FOR THIS TIME STEP      L**3/T
     ------------------                 ------------------------

           IN:                                      IN:
           ---                                      ---
             STORAGE =     4189890.7500               STORAGE =       42411.2930
       CONSTANT HEAD =           0.0000         CONSTANT HEAD =           0.0000
       RIVER LEAKAGE =      406134.1250         RIVER LEAKAGE =        5420.5781
            RECHARGE =      565990.8125              RECHARGE =        1828.9810

            TOTAL IN =     5162016.0000              TOTAL IN =       49660.8516

          OUT:                                     OUT:
          ----                                     ----
             STORAGE =     2777645.2500               STORAGE =       15111.7656
       CONSTANT HEAD =           0.0000         CONSTANT HEAD =           0.0000
       RIVER LEAKAGE =     2383940.7500         RIVER LEAKAGE =       34548.8281
            RECHARGE =           0.0000              RECHARGE =           0.0000

           TOTAL OUT =     5161586.0000             TOTAL OUT =       49660.5938

            IN - OUT =         430.0000              IN - OUT =           0.2578

 PERCENT DISCREPANCY =           0.01     PERCENT DISCREPANCY =           0.00






         TIME SUMMARY AT END OF TIME STEP   64 IN STRESS PERIOD    1
                    SECONDS     MINUTES      HOURS       DAYS        YEARS
                    -----------------------------------------------------------
   TIME STEP LENGTH  86400.      1440.0      24.000      1.0000     2.73785E-03
 STRESS PERIOD TIME 5.52960E+06  92160.      1536.0      64.000     0.17522    
         TOTAL TIME 5.52960E+06  92160.      1536.0      64.000     0.17522    
1
 
 SOLVING FOR HEAD 
                                                   Max.-Head-Change                        Max.-Flux-Residual
  Residual-Control   Outer-Iter.   Inner-Iter.     Column Row Layer    Max.-Head-Change    Column Row Layer    Max.-Flux-Residual            L2-New               L2-Old           Solver-Max-Delh
          0                 1           2            11    6     1      -0.2652742642E+02      39   16    1      -0.5557634954E+03      0.3470632703E+04      0.2199315363E+01     -0.2652742642E+02
          0                 2           2            11    6     1       0.2291005063E+01      16   17    1       0.3591920041E+03      0.4980328955E+03      0.3470632703E+04      0.2291005063E+01
          0                 3           2            11    6     1       0.1145514049E+00      16   17    1      -0.3595605074E+02      0.4026494695E+02      0.4980328955E+03      0.1145514049E+00
          0                 4           2            11    6     1       0.5726482108E-02      16   17    1      -0.1797808033E+01      0.2013139349E+01      0.4026494695E+02      0.5726482108E-02

    ------------------------------------------------
       NWT REQUIRED            4 OUTER ITERATIONS 
       AND A TOTAL OF          8 INNER ITERATIONS.
    ------------------------------------------------

 OUTPUT CONTROL FOR STRESS PERIOD    1   TIME STEP   65
    SAVE HEAD FOR ALL LAYERS
    SAVE DRAWDOWN FOR ALL LAYERS
    SAVE BUDGET
    PRINT BUDGET
 UBDSV1 SAVING "         STORAGE" ON UNIT   9 AT TIME STEP 65, STRESS PERIOD   1
 UBDSV2 SAVING "   CONSTANT HEAD" ON UNIT   9 AT TIME STEP 65, STRESS PERIOD   1
 UBDSV1 SAVING "FLOW RIGHT FACE " ON UNIT   9 AT TIME STEP 65, STRESS PERIOD   1
 UBDSV1 SAVING "FLOW FRONT FACE " ON UNIT   9 AT TIME STEP 65, STRESS PERIOD   1
 UBDSV4 SAVING "   RIVER LEAKAGE" ON UNIT   9 AT TIME STEP 65, STRESS PERIOD   1
 UBDSV3 SAVING "        RECHARGE" ON UNIT   9 AT TIME STEP 65, STRESS PERIOD   1

 HEAD WILL BE SAVED ON UNIT 5037 AT END OF TIME STEP   65, STRESS PERIOD    1

 DRAWDOWN WILL BE SAVED ON UNIT   38 AT END OF TIME STEP   65, STRESS PERIOD    1
1
  VOLUMETRIC BUDGET FOR ENTIRE MODEL AT END OF TIME STEP   65, STRESS PERIOD   1
  ------------------------------------------------------------------------------

     CUMULATIVE VOLUMES      L**3       RATES FOR THIS TIME STEP      L**3/T
     ------------------                 ------------------------

           IN:                                      IN:
           ---                                      ---
             STORAGE =     4231930.0000               STORAGE =       42039.2578
       CONSTANT HEAD =           0.0000         CONSTANT HEAD =           0.0000
       RIVER LEAKAGE =      411599.8125         RIVER LEAKAGE =        5465.6772
            RECHARGE =      567231.6875              RECHARGE =        1240.8741

            TOTAL IN =     5210761.5000              TOTAL IN =       48745.8086

          OUT:                                     OUT:
          ----                                     ----
             STORAGE =     2792188.0000               STORAGE =       14542.6631
       CONSTANT HEAD =           0.0000         CONSTANT HEAD =           0.0000
       RIVER LEAKAGE =     2418143.5000         RIVER LEAKAGE =       34202.8594
            RECHARGE =           0.0000              RECHARGE =           0.0000

           TOTAL OUT =     5210331.5000             TOTAL OUT =       48745.5234

            IN - OUT =         430.0000              IN - OUT =           0.2852

 PERCENT DISCREPANCY =           0.01     PERCENT DISCREPANCY =           0.00






         TIME SUMMARY AT END OF TIME STEP   65 IN STRESS PERIOD    1
                    SECONDS     MINUTES      HOURS       DAYS        YEARS
                    -----------------------------------------------------------
   TIME STEP LENGTH  86400.      1440.0      24.000      1.0000     2.73785E-03
 STRESS PERIOD TIME 5.61600E+06  93600.      1560.0      65.000     0.17796    
         TOTAL TIME 5.61600E+06  93600.      1560.0      65.000     0.17796    
1
 
 SOLVING FOR HEAD 
                                                   Max.-Head-Change                        Max.-Flux-Residual
  Residual-Control   Outer-Iter.   Inner-Iter.     Column Row Layer    Max.-Head-Change    Column Row Layer    Max.-Flux-Residual            L2-New               L2-Old           Solver-Max-Delh
          0                 1           2            11    6     1      -0.1919959141E+02      39   16    1      -0.5579603746E+03      0.3429550941E+04      0.2013139349E+01     -0.1919959141E+02
          0                 2           2            11    6     1       0.1658146597E+01      39   16    1       0.5574882986E+02      0.3444040273E+03      0.3429550941E+04      0.1658146597E+01
          0                 3           2            11    6     1       0.8290816026E-01      24   15    1      -0.3279830680E+01      0.1745053419E+02      0.3444040273E+03      0.8290816026E-01

    ------------------------------------------------
       NWT REQUIRED            3 OUTER ITERATIONS 
       AND A TOTAL OF          6 INNER ITERATIONS.
    ------------------------------------------------

 OUTPUT CONTROL FOR STRESS PERIOD    1   TIME STEP   66
    SAVE HEAD FOR ALL LAYERS
    SAVE DRAWDOWN FOR ALL LAYERS
    SAVE BUDGET
    PRINT BUDGET
 UBDSV1 SAVING "         STORAGE" ON UNIT   9 AT TIME STEP 66, STRESS PERIOD   1
 UBDSV2 SAVING "   CONSTANT HEAD" ON UNIT   9 AT TIME STEP 66, STRESS PERIOD   1
 UBDSV1 SAVING "FLOW RIGHT FACE " ON UNIT   9 AT TIME STEP 66, STRESS PERIOD   1
 UBDSV1 SAVING "FLOW FRONT FACE " ON UNIT   9 AT TIME STEP 66, STRESS PERIOD   1
 UBDSV4 SAVING "   RIVER LEAKAGE" ON UNIT   9 AT TIME STEP 66, STRESS PERIOD   1
 UBDSV3 SAVING "        RECHARGE" ON UNIT   9 AT TIME STEP 66, STRESS PERIOD   1

 HEAD WILL BE SAVED ON UNIT 5037 AT END OF TIME STEP   66, STRESS PERIOD    1

 DRAWDOWN WILL BE SAVED ON UNIT   38 AT END OF TIME STEP   66, STRESS PERIOD    1
1
  VOLUMETRIC BUDGET FOR ENTIRE MODEL AT END OF TIME STEP   66, STRESS PERIOD   1
  ------------------------------------------------------------------------------

     CUMULATIVE VOLUMES      L**3       RATES FOR THIS TIME STEP      L**3/T
     ------------------                 ------------------------

           IN:                                      IN:
           ---                                      ---
             STORAGE =     4273623.0000               STORAGE =       41693.1484
       CONSTANT HEAD =           0.0000         CONSTANT HEAD =           0.0000
       RIVER LEAKAGE =      417093.4375         RIVER LEAKAGE =        5493.6196
            RECHARGE =      568134.1875              RECHARGE =         902.5186

            TOTAL IN =     5258850.5000              TOTAL IN =       48089.2891

          OUT:                                     OUT:
          ----                                     ----
             STORAGE =     2806288.5000               STORAGE =       14100.4990
       CONSTANT HEAD =           0.0000         CONSTANT HEAD =           0.0000
       RIVER LEAKAGE =     2452125.5000         RIVER LEAKAGE =       33981.8828
            RECHARGE =           0.0000              RECHARGE =           0.0000

           TOTAL OUT =     5258414.0000             TOTAL OUT =       48082.3828

            IN - OUT =         436.5000              IN - OUT =           6.9062

 PERCENT DISCREPANCY =           0.01     PERCENT DISCREPANCY =           0.01






         TIME SUMMARY AT END OF TIME STEP   66 IN STRESS PERIOD    1
                    SECONDS     MINUTES      HOURS       DAYS        YEARS
                    -----------------------------------------------------------
   TIME STEP LENGTH  86400.      1440.0      24.000      1.0000     2.73785E-03
 STRESS PERIOD TIME 5.70240E+06  95040.      1584.0      66.000     0.18070    
         TOTAL TIME 5.70240E+06  95040.      1584.0      66.000     0.18070    
1
 
 SOLVING FOR HEAD 
                                                   Max.-Head-Change                        Max.-Flux-Residual
  Residual-Control   Outer-Iter.   Inner-Iter.     Column Row Layer    Max.-Head-Change    Column Row Layer    Max.-Flux-Residual            L2-New               L2-Old           Solver-Max-Delh
          0                 1           2            11    6     1      -0.1381774673E+02      39   16    1      -0.5565709595E+03      0.3400512558E+04      0.1745053419E+02     -0.1381774673E+02
          0                 2           2            11    6     1       0.1193350870E+01      39   16    1       0.5561011620E+02      0.3454250860E+03      0.3400512558E+04      0.1193350870E+01
          0                 3           2            11    6     1       0.5966814102E-01      35   20    1      -0.4985842604E+01      0.1819537085E+02      0.3454250860E+03      0.5966814102E-01

    ------------------------------------------------
       NWT REQUIRED            3 OUTER ITERATIONS 
       AND A TOTAL OF          6 INNER ITERATIONS.
    ------------------------------------------------

 OUTPUT CONTROL FOR STRESS PERIOD    1   TIME STEP   67
    SAVE HEAD FOR ALL LAYERS
    SAVE DRAWDOWN FOR ALL LAYERS
    SAVE BUDGET
    PRINT BUDGET
 UBDSV1 SAVING "         STORAGE" ON UNIT   9 AT TIME STEP 67, STRESS PERIOD   1
 UBDSV2 SAVING "   CONSTANT HEAD" ON UNIT   9 AT TIME STEP 67, STRESS PERIOD   1
 UBDSV1 SAVING "FLOW RIGHT FACE " ON UNIT   9 AT TIME STEP 67, STRESS PERIOD   1
 UBDSV1 SAVING "FLOW FRONT FACE " ON UNIT   9 AT TIME STEP 67, STRESS PERIOD   1
 UBDSV4 SAVING "   RIVER LEAKAGE" ON UNIT   9 AT TIME STEP 67, STRESS PERIOD   1
 UBDSV3 SAVING "        RECHARGE" ON UNIT   9 AT TIME STEP 67, STRESS PERIOD   1

 HEAD WILL BE SAVED ON UNIT 5037 AT END OF TIME STEP   67, STRESS PERIOD    1

 DRAWDOWN WILL BE SAVED ON UNIT   38 AT END OF TIME STEP   67, STRESS PERIOD    1
1
  VOLUMETRIC BUDGET FOR ENTIRE MODEL AT END OF TIME STEP   67, STRESS PERIOD   1
  ------------------------------------------------------------------------------

     CUMULATIVE VOLUMES      L**3       RATES FOR THIS TIME STEP      L**3/T
     ------------------                 ------------------------

           IN:                                      IN:
           ---                                      ---
             STORAGE =     4314962.5000               STORAGE =       41339.3906
       CONSTANT HEAD =           0.0000         CONSTANT HEAD =           0.0000
       RIVER LEAKAGE =      422605.6562         RIVER LEAKAGE =        5512.2051
            RECHARGE =      568834.5625              RECHARGE =         700.3785

            TOTAL IN =     5306402.5000              TOTAL IN =       47551.9727

          OUT:                                     OUT:
          ----                                     ----
             STORAGE =     2819999.7500               STORAGE =       13711.2324
       CONSTANT HEAD =           0.0000         CONSTANT HEAD =           0.0000
       RIVER LEAKAGE =     2485959.5000         RIVER LEAKAGE =       33834.0000
            RECHARGE =           0.0000              RECHARGE =           0.0000

           TOTAL OUT =     5305959.0000             TOTAL OUT =       47545.2344

            IN - OUT =         443.5000              IN - OUT =           6.7383

 PERCENT DISCREPANCY =           0.01     PERCENT DISCREPANCY =           0.01






         TIME SUMMARY AT END OF TIME STEP   67 IN STRESS PERIOD    1
                    SECONDS     MINUTES      HOURS       DAYS        YEARS
                    -----------------------------------------------------------
   TIME STEP LENGTH  86400.      1440.0      24.000      1.0000     2.73785E-03
 STRESS PERIOD TIME 5.78880E+06  96480.      1608.0      67.000     0.18344    
         TOTAL TIME 5.78880E+06  96480.      1608.0      67.000     0.18344    
1
 
 SOLVING FOR HEAD 
                                                   Max.-Head-Change                        Max.-Flux-Residual
  Residual-Control   Outer-Iter.   Inner-Iter.     Column Row Layer    Max.-Head-Change    Column Row Layer    Max.-Flux-Residual            L2-New               L2-Old           Solver-Max-Delh
          0                 1           2            11    6     1      -0.9918541207E+01      39   16    1      -0.5531632309E+03      0.3374937955E+04      0.1819537085E+02     -0.9918541207E+01
          0                 2           2            23    4     1       0.3220123536E+01      23    4    1       0.1432316342E+03      0.3827516389E+03      0.3374937955E+04      0.3220123536E+01
          0                 3           2            13    3     1      -0.1455581100E+00      30    3    1       0.2959746409E+02      0.3799445781E+02      0.3827516389E+03     -0.1455581100E+00
          0                 4           2            13    3     1      -0.7277519043E-02      30    3    1       0.5252935060E+01      0.5385764748E+01      0.3799445781E+02     -0.7277519043E-02

    ------------------------------------------------
       NWT REQUIRED            4 OUTER ITERATIONS 
       AND A TOTAL OF          8 INNER ITERATIONS.
    ------------------------------------------------

 OUTPUT CONTROL FOR STRESS PERIOD    1   TIME STEP   68
    SAVE HEAD FOR ALL LAYERS
    SAVE DRAWDOWN FOR ALL LAYERS
    SAVE BUDGET
    PRINT BUDGET
 UBDSV1 SAVING "         STORAGE" ON UNIT   9 AT TIME STEP 68, STRESS PERIOD   1
 UBDSV2 SAVING "   CONSTANT HEAD" ON UNIT   9 AT TIME STEP 68, STRESS PERIOD   1
 UBDSV1 SAVING "FLOW RIGHT FACE " ON UNIT   9 AT TIME STEP 68, STRESS PERIOD   1
 UBDSV1 SAVING "FLOW FRONT FACE " ON UNIT   9 AT TIME STEP 68, STRESS PERIOD   1
 UBDSV4 SAVING "   RIVER LEAKAGE" ON UNIT   9 AT TIME STEP 68, STRESS PERIOD   1
 UBDSV3 SAVING "        RECHARGE" ON UNIT   9 AT TIME STEP 68, STRESS PERIOD   1

 HEAD WILL BE SAVED ON UNIT 5037 AT END OF TIME STEP   68, STRESS PERIOD    1

 DRAWDOWN WILL BE SAVED ON UNIT   38 AT END OF TIME STEP   68, STRESS PERIOD    1
1
  VOLUMETRIC BUDGET FOR ENTIRE MODEL AT END OF TIME STEP   68, STRESS PERIOD   1
  ------------------------------------------------------------------------------

     CUMULATIVE VOLUMES      L**3       RATES FOR THIS TIME STEP      L**3/T
     ------------------                 ------------------------

           IN:                                      IN:
           ---                                      ---
             STORAGE =     4355933.5000               STORAGE =       40971.0547
       CONSTANT HEAD =           0.0000         CONSTANT HEAD =           0.0000
       RIVER LEAKAGE =      428132.0625         RIVER LEAKAGE =        5526.3989
            RECHARGE =      569408.1250              RECHARGE =         573.5887

            TOTAL IN =     5353473.5000              TOTAL IN =       47071.0430

          OUT:                                     OUT:
          ----                                     ----
             STORAGE =     2833321.7500               STORAGE =       13321.9473
       CONSTANT HEAD =           0.0000         CONSTANT HEAD =           0.0000
       RIVER LEAKAGE =     2519707.2500         RIVER LEAKAGE =       33747.8711
            RECHARGE =           0.0000              RECHARGE =           0.0000

           TOTAL OUT =     5353029.0000             TOTAL OUT =       47069.8203

            IN - OUT =         444.5000              IN - OUT =           1.2227

 PERCENT DISCREPANCY =           0.01     PERCENT DISCREPANCY =           0.00






         TIME SUMMARY AT END OF TIME STEP   68 IN STRESS PERIOD    1
                    SECONDS     MINUTES      HOURS       DAYS        YEARS
                    -----------------------------------------------------------
   TIME STEP LENGTH  86400.      1440.0      24.000      1.0000     2.73785E-03
 STRESS PERIOD TIME 5.87520E+06  97920.      1632.0      68.000     0.18617    
         TOTAL TIME 5.87520E+06  97920.      1632.0      68.000     0.18617    
1
 
 SOLVING FOR HEAD 
                                                   Max.-Head-Change                        Max.-Flux-Residual
  Residual-Control   Outer-Iter.   Inner-Iter.     Column Row Layer    Max.-Head-Change    Column Row Layer    Max.-Flux-Residual            L2-New               L2-Old           Solver-Max-Delh
          0                 1           2            11    6     1      -0.7120218548E+01      39   16    1      -0.5486908182E+03      0.3347299485E+04      0.5385764748E+01     -0.7120218548E+01
          0                 2           2            13    4     1       0.2299532362E+01      30    3    1       0.1035539752E+03      0.3520881884E+03      0.3347299485E+04      0.2299532362E+01
          0                 3           2            13    4     1       0.1149795925E+00      30    3    1      -0.1040323077E+02      0.2035148609E+02      0.3520881884E+03      0.1149795925E+00
          0                 4           2            13    4     1       0.5747891970E-02      30    3    1      -0.5201562521E+00      0.1017426290E+01      0.2035148609E+02      0.5747891970E-02

    ------------------------------------------------
       NWT REQUIRED            4 OUTER ITERATIONS 
       AND A TOTAL OF          8 INNER ITERATIONS.
    ------------------------------------------------

 OUTPUT CONTROL FOR STRESS PERIOD    1   TIME STEP   69
    SAVE HEAD FOR ALL LAYERS
    SAVE DRAWDOWN FOR ALL LAYERS
    SAVE BUDGET
    PRINT BUDGET
 UBDSV1 SAVING "         STORAGE" ON UNIT   9 AT TIME STEP 69, STRESS PERIOD   1
 UBDSV2 SAVING "   CONSTANT HEAD" ON UNIT   9 AT TIME STEP 69, STRESS PERIOD   1
 UBDSV1 SAVING "FLOW RIGHT FACE " ON UNIT   9 AT TIME STEP 69, STRESS PERIOD   1
 UBDSV1 SAVING "FLOW FRONT FACE " ON UNIT   9 AT TIME STEP 69, STRESS PERIOD   1
 UBDSV4 SAVING "   RIVER LEAKAGE" ON UNIT   9 AT TIME STEP 69, STRESS PERIOD   1
 UBDSV3 SAVING "        RECHARGE" ON UNIT   9 AT TIME STEP 69, STRESS PERIOD   1

 HEAD WILL BE SAVED ON UNIT 5037 AT END OF TIME STEP   69, STRESS PERIOD    1

 DRAWDOWN WILL BE SAVED ON UNIT   38 AT END OF TIME STEP   69, STRESS PERIOD    1
1
  VOLUMETRIC BUDGET FOR ENTIRE MODEL AT END OF TIME STEP   69, STRESS PERIOD   1
  ------------------------------------------------------------------------------

     CUMULATIVE VOLUMES      L**3       RATES FOR THIS TIME STEP      L**3/T
     ------------------                 ------------------------

           IN:                                      IN:
           ---                                      ---
             STORAGE =     4396558.0000               STORAGE =       40624.6133
       CONSTANT HEAD =           0.0000         CONSTANT HEAD =           0.0000
       RIVER LEAKAGE =      433669.8750         RIVER LEAKAGE =        5537.8110
            RECHARGE =      569897.5000              RECHARGE =         489.3700

            TOTAL IN =     5400125.5000              TOTAL IN =       46651.7969

          OUT:                                     OUT:
          ----                                     ----
             STORAGE =     2846282.5000               STORAGE =       12960.8643
       CONSTANT HEAD =           0.0000         CONSTANT HEAD =           0.0000
       RIVER LEAKAGE =     2553397.7500         RIVER LEAKAGE =       33690.6016
            RECHARGE =           0.0000              RECHARGE =           0.0000

           TOTAL OUT =     5399680.0000             TOTAL OUT =       46651.4648

            IN - OUT =         445.5000              IN - OUT =           0.3320

 PERCENT DISCREPANCY =           0.01     PERCENT DISCREPANCY =           0.00






         TIME SUMMARY AT END OF TIME STEP   69 IN STRESS PERIOD    1
                    SECONDS     MINUTES      HOURS       DAYS        YEARS
                    -----------------------------------------------------------
   TIME STEP LENGTH  86400.      1440.0      24.000      1.0000     2.73785E-03
 STRESS PERIOD TIME 5.96160E+06  99360.      1656.0      69.000     0.18891    
         TOTAL TIME 5.96160E+06  99360.      1656.0      69.000     0.18891    
1
 
 SOLVING FOR HEAD 
                                                   Max.-Head-Change                        Max.-Flux-Residual
  Residual-Control   Outer-Iter.   Inner-Iter.     Column Row Layer    Max.-Head-Change    Column Row Layer    Max.-Flux-Residual            L2-New               L2-Old           Solver-Max-Delh
          0                 1           2            11    6     1      -0.5105094447E+01      39   16    1      -0.5436540206E+03      0.3319959054E+04      0.1017426290E+01     -0.5105094447E+01
          0                 2           2            34    9     1       0.2175562883E+01      39   16    1       0.5432056292E+02      0.3406799103E+03      0.3319959054E+04      0.2175562883E+01
          0                 3           2            34    9     1       0.1087792378E+00      39   16    1       0.2715692774E+01      0.1691098838E+02      0.3406799103E+03      0.1087792378E+00
          0                 4           2            34    9     1       0.5437928567E-02      39   16    1       0.1357565783E+00      0.8453772819E+00      0.1691098838E+02      0.5437928567E-02

    ------------------------------------------------
       NWT REQUIRED            4 OUTER ITERATIONS 
       AND A TOTAL OF          8 INNER ITERATIONS.
    ------------------------------------------------

 OUTPUT CONTROL FOR STRESS PERIOD    1   TIME STEP   70
    SAVE HEAD FOR ALL LAYERS
    SAVE DRAWDOWN FOR ALL LAYERS
    SAVE BUDGET
    PRINT BUDGET
 UBDSV1 SAVING "         STORAGE" ON UNIT   9 AT TIME STEP 70, STRESS PERIOD   1
 UBDSV2 SAVING "   CONSTANT HEAD" ON UNIT   9 AT TIME STEP 70, STRESS PERIOD   1
 UBDSV1 SAVING "FLOW RIGHT FACE " ON UNIT   9 AT TIME STEP 70, STRESS PERIOD   1
 UBDSV1 SAVING "FLOW FRONT FACE " ON UNIT   9 AT TIME STEP 70, STRESS PERIOD   1
 UBDSV4 SAVING "   RIVER LEAKAGE" ON UNIT   9 AT TIME STEP 70, STRESS PERIOD   1
 UBDSV3 SAVING "        RECHARGE" ON UNIT   9 AT TIME STEP 70, STRESS PERIOD   1

 HEAD WILL BE SAVED ON UNIT 5037 AT END OF TIME STEP   70, STRESS PERIOD    1

 DRAWDOWN WILL BE SAVED ON UNIT   38 AT END OF TIME STEP   70, STRESS PERIOD    1
1
  VOLUMETRIC BUDGET FOR ENTIRE MODEL AT END OF TIME STEP   70, STRESS PERIOD   1
  ------------------------------------------------------------------------------

     CUMULATIVE VOLUMES      L**3       RATES FOR THIS TIME STEP      L**3/T
     ------------------                 ------------------------

           IN:                                      IN:
           ---                                      ---
             STORAGE =     4436871.0000               STORAGE =       40313.1367
       CONSTANT HEAD =           0.0000         CONSTANT HEAD =           0.0000
       RIVER LEAKAGE =      439217.2812         RIVER LEAKAGE =        5547.4214
            RECHARGE =      570327.4375              RECHARGE =         429.9213

            TOTAL IN =     5446416.0000              TOTAL IN =       46290.4805

          OUT:                                     OUT:
          ----                                     ----
             STORAGE =     2858934.2500               STORAGE =       12651.8633
       CONSTANT HEAD =           0.0000         CONSTANT HEAD =           0.0000
       RIVER LEAKAGE =     2587036.0000         RIVER LEAKAGE =       33638.2695
            RECHARGE =           0.0000              RECHARGE =           0.0000

           TOTAL OUT =     5445970.0000             TOTAL OUT =       46290.1328

            IN - OUT =         446.0000              IN - OUT =           0.3477

 PERCENT DISCREPANCY =           0.01     PERCENT DISCREPANCY =           0.00






         TIME SUMMARY AT END OF TIME STEP   70 IN STRESS PERIOD    1
                    SECONDS     MINUTES      HOURS       DAYS        YEARS
                    -----------------------------------------------------------
   TIME STEP LENGTH  86400.      1440.0      24.000      1.0000     2.73785E-03
 STRESS PERIOD TIME 6.04800E+06 1.00800E+05  1680.0      70.000     0.19165    
         TOTAL TIME 6.04800E+06 1.00800E+05  1680.0      70.000     0.19165    
1
 
 SOLVING FOR HEAD 
                                                   Max.-Head-Change                        Max.-Flux-Residual
  Residual-Control   Outer-Iter.   Inner-Iter.     Column Row Layer    Max.-Head-Change    Column Row Layer    Max.-Flux-Residual            L2-New               L2-Old           Solver-Max-Delh
          0                 1           2            11    6     1      -0.3657370389E+01      39   16    1      -0.5383540880E+03      0.3295172963E+04      0.8453772819E+00     -0.3657370389E+01
          0                 2           2             2    3     1       0.4470838215E+00       2    3    1       0.1156358274E+03      0.3487355878E+03      0.3295172963E+04      0.4470838215E+00
          0                 3           2             2    3     1      -0.3861728072E-01       2    3    1      -0.1166087158E+02      0.2038683601E+02      0.3487355878E+03     -0.3861728072E-01

    ------------------------------------------------
       NWT REQUIRED            3 OUTER ITERATIONS 
       AND A TOTAL OF          6 INNER ITERATIONS.
    ------------------------------------------------

 OUTPUT CONTROL FOR STRESS PERIOD    1   TIME STEP   71
    SAVE HEAD FOR ALL LAYERS
    SAVE DRAWDOWN FOR ALL LAYERS
    SAVE BUDGET
    PRINT BUDGET
 UBDSV1 SAVING "         STORAGE" ON UNIT   9 AT TIME STEP 71, STRESS PERIOD   1
 UBDSV2 SAVING "   CONSTANT HEAD" ON UNIT   9 AT TIME STEP 71, STRESS PERIOD   1
 UBDSV1 SAVING "FLOW RIGHT FACE " ON UNIT   9 AT TIME STEP 71, STRESS PERIOD   1
 UBDSV1 SAVING "FLOW FRONT FACE " ON UNIT   9 AT TIME STEP 71, STRESS PERIOD   1
 UBDSV4 SAVING "   RIVER LEAKAGE" ON UNIT   9 AT TIME STEP 71, STRESS PERIOD   1
 UBDSV3 SAVING "        RECHARGE" ON UNIT   9 AT TIME STEP 71, STRESS PERIOD   1

 HEAD WILL BE SAVED ON UNIT 5037 AT END OF TIME STEP   71, STRESS PERIOD    1

 DRAWDOWN WILL BE SAVED ON UNIT   38 AT END OF TIME STEP   71, STRESS PERIOD    1
1
  VOLUMETRIC BUDGET FOR ENTIRE MODEL AT END OF TIME STEP   71, STRESS PERIOD   1
  ------------------------------------------------------------------------------

     CUMULATIVE VOLUMES      L**3       RATES FOR THIS TIME STEP      L**3/T
     ------------------                 ------------------------

           IN:                                      IN:
           ---                                      ---
             STORAGE =     4476895.5000               STORAGE =       40024.6602
       CONSTANT HEAD =           0.0000         CONSTANT HEAD =           0.0000
       RIVER LEAKAGE =      444773.2812         RIVER LEAKAGE =        5555.9980
            RECHARGE =      570712.8750              RECHARGE =         385.4501

            TOTAL IN =     5492382.0000              TOTAL IN =       45966.1055

          OUT:                                     OUT:
          ----                                     ----
             STORAGE =     2871307.7500               STORAGE =       12373.5137
       CONSTANT HEAD =           0.0000         CONSTANT HEAD =           0.0000
       RIVER LEAKAGE =     2620622.0000         RIVER LEAKAGE =       33586.0000
            RECHARGE =           0.0000              RECHARGE =           0.0000

           TOTAL OUT =     5491930.0000             TOTAL OUT =       45959.5156

            IN - OUT =         452.0000              IN - OUT =           6.5898

 PERCENT DISCREPANCY =           0.01     PERCENT DISCREPANCY =           0.01






         TIME SUMMARY AT END OF TIME STEP   71 IN STRESS PERIOD    1
                    SECONDS     MINUTES      HOURS       DAYS        YEARS
                    -----------------------------------------------------------
   TIME STEP LENGTH  86400.      1440.0      24.000      1.0000     2.73785E-03
 STRESS PERIOD TIME 6.13440E+06 1.02240E+05  1704.0      71.000     0.19439    
         TOTAL TIME 6.13440E+06 1.02240E+05  1704.0      71.000     0.19439    
1
 
 SOLVING FOR HEAD 
                                                   Max.-Head-Change                        Max.-Flux-Residual
  Residual-Control   Outer-Iter.   Inner-Iter.     Column Row Layer    Max.-Head-Change    Column Row Layer    Max.-Flux-Residual            L2-New               L2-Old           Solver-Max-Delh
          0                 1           2            11    6     1      -0.2614089614E+01      39   16    1      -0.5329318392E+03      0.3271054829E+04      0.2038683601E+02     -0.2614089614E+01
          0                 2           2            40   14     1       0.5263089419E+00      40   14    1       0.7078429166E+02      0.3344171163E+03      0.3271054829E+04      0.5263089419E+00
          0                 3           2            40   14     1      -0.4545819182E-01      40   14    1      -0.7069465832E+01      0.1788066609E+02      0.3344171163E+03     -0.4545819182E-01

    ------------------------------------------------
       NWT REQUIRED            3 OUTER ITERATIONS 
       AND A TOTAL OF          6 INNER ITERATIONS.
    ------------------------------------------------

 OUTPUT CONTROL FOR STRESS PERIOD    1   TIME STEP   72
    SAVE HEAD FOR ALL LAYERS
    SAVE DRAWDOWN FOR ALL LAYERS
    SAVE BUDGET
    PRINT BUDGET
 UBDSV1 SAVING "         STORAGE" ON UNIT   9 AT TIME STEP 72, STRESS PERIOD   1
 UBDSV2 SAVING "   CONSTANT HEAD" ON UNIT   9 AT TIME STEP 72, STRESS PERIOD   1
 UBDSV1 SAVING "FLOW RIGHT FACE " ON UNIT   9 AT TIME STEP 72, STRESS PERIOD   1
 UBDSV1 SAVING "FLOW FRONT FACE " ON UNIT   9 AT TIME STEP 72, STRESS PERIOD   1
 UBDSV4 SAVING "   RIVER LEAKAGE" ON UNIT   9 AT TIME STEP 72, STRESS PERIOD   1
 UBDSV3 SAVING "        RECHARGE" ON UNIT   9 AT TIME STEP 72, STRESS PERIOD   1

 HEAD WILL BE SAVED ON UNIT 5037 AT END OF TIME STEP   72, STRESS PERIOD    1

 DRAWDOWN WILL BE SAVED ON UNIT   38 AT END OF TIME STEP   72, STRESS PERIOD    1
1
  VOLUMETRIC BUDGET FOR ENTIRE MODEL AT END OF TIME STEP   72, STRESS PERIOD   1
  ------------------------------------------------------------------------------

     CUMULATIVE VOLUMES      L**3       RATES FOR THIS TIME STEP      L**3/T
     ------------------                 ------------------------

           IN:                                      IN:
           ---                                      ---
             STORAGE =     4516632.5000               STORAGE =       39736.8203
       CONSTANT HEAD =           0.0000         CONSTANT HEAD =           0.0000
       RIVER LEAKAGE =      450337.2500         RIVER LEAKAGE =        5563.9790
            RECHARGE =      571063.3750              RECHARGE =         350.4713

            TOTAL IN =     5538033.5000              TOTAL IN =       45651.2734

          OUT:                                     OUT:
          ----                                     ----
             STORAGE =     2883415.2500               STORAGE =       12107.4150
       CONSTANT HEAD =           0.0000         CONSTANT HEAD =           0.0000
       RIVER LEAKAGE =     2654159.2500         RIVER LEAKAGE =       33537.1719
            RECHARGE =           0.0000              RECHARGE =           0.0000

           TOTAL OUT =     5537574.5000             TOTAL OUT =       45644.5859

            IN - OUT =         459.0000              IN - OUT =           6.6875

 PERCENT DISCREPANCY =           0.01     PERCENT DISCREPANCY =           0.01






         TIME SUMMARY AT END OF TIME STEP   72 IN STRESS PERIOD    1
                    SECONDS     MINUTES      HOURS       DAYS        YEARS
                    -----------------------------------------------------------
   TIME STEP LENGTH  86400.      1440.0      24.000      1.0000     2.73785E-03
 STRESS PERIOD TIME 6.22080E+06 1.03680E+05  1728.0      72.000     0.19713    
         TOTAL TIME 6.22080E+06 1.03680E+05  1728.0      72.000     0.19713    
1
 
 SOLVING FOR HEAD 
                                                   Max.-Head-Change                        Max.-Flux-Residual
  Residual-Control   Outer-Iter.   Inner-Iter.     Column Row Layer    Max.-Head-Change    Column Row Layer    Max.-Flux-Residual            L2-New               L2-Old           Solver-Max-Delh
          0                 1           2            13    4     1       0.1332094446E+04      13    9    1       0.7014055744E+04      0.5881882506E+05      0.1788066609E+02      0.1332094446E+04
          0                 2           2            11    6     1       0.3337526022E+04      26   13    1       0.5784873589E+04      0.1554428648E+05      0.5881882506E+05      0.3337526022E+04
          1                 2           0            11    6     1       0.2336268175E+04      10    6    1       0.1041282878E+06      0.1041972569E+06      0.1554428648E+05      0.3337526022E+04
          2                 2           0            11    6     1       0.1635387695E+04      10    6    1       0.1038798869E+06      0.1039999483E+06      0.1041972569E+06      0.3337526022E+04
          3                 2           0            11    6     1       0.1144771367E+04      10    6    1       0.9794723404E+05      0.9825058412E+05      0.1039999483E+06      0.3337526022E+04
          4                 2           0            11    6     1       0.8013399432E+03      10    6    1       0.6746126818E+05      0.6818039080E+05      0.9825058412E+05      0.3337526022E+04
          5                 2           0            11    6     1       0.5609379507E+03      10    6    1       0.4600981201E+05      0.4741174015E+05      0.6818039080E+05      0.3337526022E+04
          6                 2           0            11    6     1       0.3926565588E+03      10    6    1       0.3093594670E+05      0.3338935776E+05      0.4741174015E+05      0.3337526022E+04
          7                 2           0            11    6     1       0.2748595865E+03      10    6    1       0.2035490876E+05      0.2434247673E+05      0.3338935776E+05      0.3337526022E+04
          8                 2           0            11    6     1       0.1924017073E+03      10    6    1       0.1293380945E+05      0.1898869913E+05      0.2434247673E+05      0.3337526022E+04
                                                   Max.-Head-Change                        Max.-Flux-Residual
  Residual-Control   Outer-Iter.   Inner-Iter.     Column Row Layer    Max.-Head-Change    Column Row Layer    Max.-Flux-Residual            L2-New               L2-Old           Solver-Max-Delh
          0                 3           2            11    6     1       0.3127570362E+04      10    6    1       0.7731997305E+04      0.1624717495E+05      0.1898869913E+05      0.3127570362E+04
          0                 4           2            11    6     1      -0.2701084038E+03      30    7    1       0.3605077155E+04      0.4034525422E+04      0.1624717495E+05     -0.2701084038E+03
          0                 5           2            11    6     1      -0.1350555693E+02      30    7    1       0.6384085444E+03      0.6885899085E+03      0.4034525422E+04     -0.1350555693E+02
          0                 6           2            11    6     1      -0.6751495988E+00      30    7    1       0.1132369562E+03      0.1217320856E+03      0.6885899085E+03     -0.6751495988E+00
          0                 7           2            11    6     1      -0.3374431641E-01      30    7    1       0.2009343754E+02      0.2159352626E+02      0.1217320856E+03     -0.3374431641E-01

    ------------------------------------------------
       NWT REQUIRED            7 OUTER ITERATIONS 
       AND A TOTAL OF         14 INNER ITERATIONS.
    ------------------------------------------------

 OUTPUT CONTROL FOR STRESS PERIOD    1   TIME STEP   73
    SAVE HEAD FOR ALL LAYERS
    SAVE DRAWDOWN FOR ALL LAYERS
    SAVE BUDGET
    PRINT BUDGET
 UBDSV1 SAVING "         STORAGE" ON UNIT   9 AT TIME STEP 73, STRESS PERIOD   1
 UBDSV2 SAVING "   CONSTANT HEAD" ON UNIT   9 AT TIME STEP 73, STRESS PERIOD   1
 UBDSV1 SAVING "FLOW RIGHT FACE " ON UNIT   9 AT TIME STEP 73, STRESS PERIOD   1
 UBDSV1 SAVING "FLOW FRONT FACE " ON UNIT   9 AT TIME STEP 73, STRESS PERIOD   1
 UBDSV4 SAVING "   RIVER LEAKAGE" ON UNIT   9 AT TIME STEP 73, STRESS PERIOD   1
 UBDSV3 SAVING "        RECHARGE" ON UNIT   9 AT TIME STEP 73, STRESS PERIOD   1

 HEAD WILL BE SAVED ON UNIT 5037 AT END OF TIME STEP   73, STRESS PERIOD    1

 DRAWDOWN WILL BE SAVED ON UNIT   38 AT END OF TIME STEP   73, STRESS PERIOD    1
1
  VOLUMETRIC BUDGET FOR ENTIRE MODEL AT END OF TIME STEP   73, STRESS PERIOD   1
  ------------------------------------------------------------------------------

     CUMULATIVE VOLUMES      L**3       RATES FOR THIS TIME STEP      L**3/T
     ------------------                 ------------------------

           IN:                                      IN:
           ---                                      ---
             STORAGE =     4534796.0000               STORAGE =       18163.5586
       CONSTANT HEAD =           0.0000         CONSTANT HEAD =           0.0000
       RIVER LEAKAGE =      452868.0625         RIVER LEAKAGE =        2530.7981
            RECHARGE =     1528657.0000              RECHARGE =      957593.6250

            TOTAL IN =     6516321.0000              TOTAL IN =      978288.0000

          OUT:                                     OUT:
          ----                                     ----
             STORAGE =     3492005.0000               STORAGE =      608589.7500
       CONSTANT HEAD =           0.0000         CONSTANT HEAD =           0.0000
       RIVER LEAKAGE =     3023852.5000         RIVER LEAKAGE =      369693.2812
            RECHARGE =           0.0000              RECHARGE =           0.0000

           TOTAL OUT =     6515857.5000             TOTAL OUT =      978283.0000

            IN - OUT =         463.5000              IN - OUT =           5.0000

 PERCENT DISCREPANCY =           0.01     PERCENT DISCREPANCY =           0.00






         TIME SUMMARY AT END OF TIME STEP   73 IN STRESS PERIOD    1
                    SECONDS     MINUTES      HOURS       DAYS        YEARS
                    -----------------------------------------------------------
   TIME STEP LENGTH  86400.      1440.0      24.000      1.0000     2.73785E-03
 STRESS PERIOD TIME 6.30720E+06 1.05120E+05  1752.0      73.000     0.19986    
         TOTAL TIME 6.30720E+06 1.05120E+05  1752.0      73.000     0.19986    
1
 
 SOLVING FOR HEAD 
                                                   Max.-Head-Change                        Max.-Flux-Residual
  Residual-Control   Outer-Iter.   Inner-Iter.     Column Row Layer    Max.-Head-Change    Column Row Layer    Max.-Flux-Residual            L2-New               L2-Old           Solver-Max-Delh
          0                 1           2            11    6     1       0.8675710652E+03      38   18    1       0.5048909964E+04      0.3438474164E+05      0.2159352626E+02      0.8675710652E+03
          0                 2           2            11    6     1      -0.7492661496E+02      34   20    1      -0.1384153727E+05      0.1474950854E+05      0.3438474164E+05     -0.7492661496E+02
          0                 3           2            11    6     1      -0.3746368470E+01      34   20    1      -0.6933881425E+03      0.8169110678E+03      0.1474950854E+05     -0.3746368470E+01
          0                 4           2            11    6     1      -0.1872828367E+00      34   20    1      -0.3466575084E+02      0.3971764505E+02      0.8169110678E+03     -0.1872828367E+00
          0                 5           2            11    6     1      -0.9360489967E-02      34   20    1      -0.1732601586E+01      0.1985169988E+01      0.3971764505E+02     -0.9360489967E-02

    ------------------------------------------------
       NWT REQUIRED            5 OUTER ITERATIONS 
       AND A TOTAL OF         10 INNER ITERATIONS.
    ------------------------------------------------

 OUTPUT CONTROL FOR STRESS PERIOD    1   TIME STEP   74
    SAVE HEAD FOR ALL LAYERS
    SAVE DRAWDOWN FOR ALL LAYERS
    SAVE BUDGET
    PRINT BUDGET
 UBDSV1 SAVING "         STORAGE" ON UNIT   9 AT TIME STEP 74, STRESS PERIOD   1
 UBDSV2 SAVING "   CONSTANT HEAD" ON UNIT   9 AT TIME STEP 74, STRESS PERIOD   1
 UBDSV1 SAVING "FLOW RIGHT FACE " ON UNIT   9 AT TIME STEP 74, STRESS PERIOD   1
 UBDSV1 SAVING "FLOW FRONT FACE " ON UNIT   9 AT TIME STEP 74, STRESS PERIOD   1
 UBDSV4 SAVING "   RIVER LEAKAGE" ON UNIT   9 AT TIME STEP 74, STRESS PERIOD   1
 UBDSV3 SAVING "        RECHARGE" ON UNIT   9 AT TIME STEP 74, STRESS PERIOD   1

 HEAD WILL BE SAVED ON UNIT 5037 AT END OF TIME STEP   74, STRESS PERIOD    1

 DRAWDOWN WILL BE SAVED ON UNIT   38 AT END OF TIME STEP   74, STRESS PERIOD    1
1
  VOLUMETRIC BUDGET FOR ENTIRE MODEL AT END OF TIME STEP   74, STRESS PERIOD   1
  ------------------------------------------------------------------------------

     CUMULATIVE VOLUMES      L**3       RATES FOR THIS TIME STEP      L**3/T
     ------------------                 ------------------------

           IN:                                      IN:
           ---                                      ---
             STORAGE =     4552582.0000               STORAGE =       17786.0488
       CONSTANT HEAD =           0.0000         CONSTANT HEAD =           0.0000
       RIVER LEAKAGE =      471575.3750         RIVER LEAKAGE =       18707.2988
            RECHARGE =     2058270.1250              RECHARGE =      529613.1250

            TOTAL IN =     7082427.5000              TOTAL IN =      566106.5000

          OUT:                                     OUT:
          ----                                     ----
             STORAGE =     3842621.5000               STORAGE =      350616.4375
       CONSTANT HEAD =           0.0000         CONSTANT HEAD =           0.0000
       RIVER LEAKAGE =     3239343.0000         RIVER LEAKAGE =      215490.5469
            RECHARGE =           0.0000              RECHARGE =           0.0000

           TOTAL OUT =     7081964.5000             TOTAL OUT =      566107.0000

            IN - OUT =         463.0000              IN - OUT =          -0.5000

 PERCENT DISCREPANCY =           0.01     PERCENT DISCREPANCY =          -0.00






         TIME SUMMARY AT END OF TIME STEP   74 IN STRESS PERIOD    1
                    SECONDS     MINUTES      HOURS       DAYS        YEARS
                    -----------------------------------------------------------
   TIME STEP LENGTH  86400.      1440.0      24.000      1.0000     2.73785E-03
 STRESS PERIOD TIME 6.39360E+06 1.06560E+05  1776.0      74.000     0.20260    
         TOTAL TIME 6.39360E+06 1.06560E+05  1776.0      74.000     0.20260    
1
 
 SOLVING FOR HEAD 
                                                   Max.-Head-Change                        Max.-Flux-Residual
  Residual-Control   Outer-Iter.   Inner-Iter.     Column Row Layer    Max.-Head-Change    Column Row Layer    Max.-Flux-Residual            L2-New               L2-Old           Solver-Max-Delh
          0                 1           2            11    6     1       0.3381864690E+03      17    6    1      -0.3852260358E+04      0.2587269462E+05      0.1985169988E+01      0.3381864690E+03
          0                 2           2            11    6     1      -0.2884103565E+02      10    6    1       0.7485024244E+03      0.2723444877E+04      0.2587269462E+05     -0.2884103565E+02
          0                 3           2            11    6     1      -0.1442051168E+01      33    7    1       0.2690935181E+04      0.2695411580E+04      0.2723444877E+04     -0.1442051168E+01
          0                 4           2            11    6     1      -0.7208893640E-01      33    7    1       0.4771326659E+03      0.4771985582E+03      0.2695411580E+04     -0.7208893640E-01

    ------------------------------------------------
       NWT REQUIRED            4 OUTER ITERATIONS 
       AND A TOTAL OF          8 INNER ITERATIONS.
    ------------------------------------------------

 OUTPUT CONTROL FOR STRESS PERIOD    1   TIME STEP   75
    SAVE HEAD FOR ALL LAYERS
    SAVE DRAWDOWN FOR ALL LAYERS
    SAVE BUDGET
    PRINT BUDGET
 UBDSV1 SAVING "         STORAGE" ON UNIT   9 AT TIME STEP 75, STRESS PERIOD   1
 UBDSV2 SAVING "   CONSTANT HEAD" ON UNIT   9 AT TIME STEP 75, STRESS PERIOD   1
 UBDSV1 SAVING "FLOW RIGHT FACE " ON UNIT   9 AT TIME STEP 75, STRESS PERIOD   1
 UBDSV1 SAVING "FLOW FRONT FACE " ON UNIT   9 AT TIME STEP 75, STRESS PERIOD   1
 UBDSV4 SAVING "   RIVER LEAKAGE" ON UNIT   9 AT TIME STEP 75, STRESS PERIOD   1
 UBDSV3 SAVING "        RECHARGE" ON UNIT   9 AT TIME STEP 75, STRESS PERIOD   1

 HEAD WILL BE SAVED ON UNIT 5037 AT END OF TIME STEP   75, STRESS PERIOD    1

 DRAWDOWN WILL BE SAVED ON UNIT   38 AT END OF TIME STEP   75, STRESS PERIOD    1
1
  VOLUMETRIC BUDGET FOR ENTIRE MODEL AT END OF TIME STEP   75, STRESS PERIOD   1
  ------------------------------------------------------------------------------

     CUMULATIVE VOLUMES      L**3       RATES FOR THIS TIME STEP      L**3/T
     ------------------                 ------------------------

           IN:                                      IN:
           ---                                      ---
             STORAGE =     4612401.0000               STORAGE =       59819.0547
       CONSTANT HEAD =           0.0000         CONSTANT HEAD =           0.0000
       RIVER LEAKAGE =      476600.6562         RIVER LEAKAGE =        5025.2715
            RECHARGE =     2512153.7500              RECHARGE =      453883.5625

            TOTAL IN =     7601155.0000              TOTAL IN =      518727.8750

          OUT:                                     OUT:
          ----                                     ----
             STORAGE =     4086179.5000               STORAGE =      243557.9844
       CONSTANT HEAD =           0.0000         CONSTANT HEAD =           0.0000
       RIVER LEAKAGE =     3514429.2500         RIVER LEAKAGE =      275086.2500
            RECHARGE =           0.0000              RECHARGE =           0.0000

           TOTAL OUT =     7600609.0000             TOTAL OUT =      518644.2500

            IN - OUT =         546.0000              IN - OUT =          83.6250

 PERCENT DISCREPANCY =           0.01     PERCENT DISCREPANCY =           0.02






         TIME SUMMARY AT END OF TIME STEP   75 IN STRESS PERIOD    1
                    SECONDS     MINUTES      HOURS       DAYS        YEARS
                    -----------------------------------------------------------
   TIME STEP LENGTH  86400.      1440.0      24.000      1.0000     2.73785E-03
 STRESS PERIOD TIME 6.48000E+06 1.08000E+05  1800.0      75.000     0.20534    
         TOTAL TIME 6.48000E+06 1.08000E+05  1800.0      75.000     0.20534    
1
 
 SOLVING FOR HEAD 
                                                   Max.-Head-Change                        Max.-Flux-Residual
  Residual-Control   Outer-Iter.   Inner-Iter.     Column Row Layer    Max.-Head-Change    Column Row Layer    Max.-Flux-Residual            L2-New               L2-Old           Solver-Max-Delh
          0                 1           2            11    6     1      -0.5709203580E+03      27    4    1       0.2749627933E+04      0.1921632957E+05      0.8467163934E+02     -0.5709203580E+03
          0                 2           2            11    6     1       0.4931658974E+02       3    2    1       0.9250026153E+03      0.2284856419E+04      0.1921632957E+05      0.4931658974E+02
          0                 3           2            11    6     1       0.2465854155E+01      24    4    1       0.7395022102E+03      0.7570041731E+03      0.2284856419E+04      0.2465854155E+01
          0                 4           2            11    6     1       0.1232692842E+00      24    4    1       0.1312565865E+03      0.1315061880E+03      0.7570041731E+03      0.1232692842E+00
          0                 5           2            11    6     1       0.6161060554E-02      24    4    1       0.2329720654E+02      0.2330086654E+02      0.1315061880E+03      0.6161060554E-02

    ------------------------------------------------
       NWT REQUIRED            5 OUTER ITERATIONS 
       AND A TOTAL OF         10 INNER ITERATIONS.
    ------------------------------------------------

 OUTPUT CONTROL FOR STRESS PERIOD    1   TIME STEP   76
    SAVE HEAD FOR ALL LAYERS
    SAVE DRAWDOWN FOR ALL LAYERS
    SAVE BUDGET
    PRINT BUDGET
 UBDSV1 SAVING "         STORAGE" ON UNIT   9 AT TIME STEP 76, STRESS PERIOD   1
 UBDSV2 SAVING "   CONSTANT HEAD" ON UNIT   9 AT TIME STEP 76, STRESS PERIOD   1
 UBDSV1 SAVING "FLOW RIGHT FACE " ON UNIT   9 AT TIME STEP 76, STRESS PERIOD   1
 UBDSV1 SAVING "FLOW FRONT FACE " ON UNIT   9 AT TIME STEP 76, STRESS PERIOD   1
 UBDSV4 SAVING "   RIVER LEAKAGE" ON UNIT   9 AT TIME STEP 76, STRESS PERIOD   1
 UBDSV3 SAVING "        RECHARGE" ON UNIT   9 AT TIME STEP 76, STRESS PERIOD   1

 HEAD WILL BE SAVED ON UNIT 5037 AT END OF TIME STEP   76, STRESS PERIOD    1

 DRAWDOWN WILL BE SAVED ON UNIT   38 AT END OF TIME STEP   76, STRESS PERIOD    1
1
  VOLUMETRIC BUDGET FOR ENTIRE MODEL AT END OF TIME STEP   76, STRESS PERIOD   1
  ------------------------------------------------------------------------------

     CUMULATIVE VOLUMES      L**3       RATES FOR THIS TIME STEP      L**3/T
     ------------------                 ------------------------

           IN:                                      IN:
           ---                                      ---
             STORAGE =     4680997.5000               STORAGE =       68596.2656
       CONSTANT HEAD =           0.0000         CONSTANT HEAD =           0.0000
       RIVER LEAKAGE =      480899.5625         RIVER LEAKAGE =        4298.9175
            RECHARGE =     2761426.7500              RECHARGE =      249273.0938

            TOTAL IN =     7923324.0000              TOTAL IN =      322168.2812

          OUT:                                     OUT:
          ----                                     ----
             STORAGE =     4225405.0000               STORAGE =      139225.4688
       CONSTANT HEAD =           0.0000         CONSTANT HEAD =           0.0000
       RIVER LEAKAGE =     3697368.0000         RIVER LEAKAGE =      182938.6875
            RECHARGE =           0.0000              RECHARGE =           0.0000

           TOTAL OUT =     7922773.0000             TOTAL OUT =      322164.1562

            IN - OUT =         551.0000              IN - OUT =           4.1250

 PERCENT DISCREPANCY =           0.01     PERCENT DISCREPANCY =           0.00






         TIME SUMMARY AT END OF TIME STEP   76 IN STRESS PERIOD    1
                    SECONDS     MINUTES      HOURS       DAYS        YEARS
                    -----------------------------------------------------------
   TIME STEP LENGTH  86400.      1440.0      24.000      1.0000     2.73785E-03
 STRESS PERIOD TIME 6.56640E+06 1.09440E+05  1824.0      76.000     0.20808    
         TOTAL TIME 6.56640E+06 1.09440E+05  1824.0      76.000     0.20808    
1
 
 SOLVING FOR HEAD 
                                                   Max.-Head-Change                        Max.-Flux-Residual
  Residual-Control   Outer-Iter.   Inner-Iter.     Column Row Layer    Max.-Head-Change    Column Row Layer    Max.-Flux-Residual            L2-New               L2-Old           Solver-Max-Delh
          0                 1           2            11    6     1      -0.8259180875E+03      27    4    1       0.2218023310E+04      0.1512139068E+05      0.2330086654E+02     -0.8259180875E+03
          0                 2           2            11    6     1       0.7132929109E+02       4    2    1       0.7663519477E+03      0.1806208291E+04      0.1512139068E+05      0.7132929109E+02
          0                 3           2            11    6     1       0.3566500277E+01       4    2    1      -0.7030354824E+02      0.1240412401E+03      0.1806208291E+04      0.3566500277E+01
          0                 4           2            11    6     1       0.1782911352E+00       4    2    1      -0.3510188772E+01      0.6195443354E+01      0.1240412401E+03      0.1782911352E+00
          0                 5           2            11    6     1       0.8911080219E-02       4    2    1      -0.1754740430E+00      0.3096867595E+00      0.6195443354E+01      0.8911080219E-02

    ------------------------------------------------
       NWT REQUIRED            5 OUTER ITERATIONS 
       AND A TOTAL OF         10 INNER ITERATIONS.
    ------------------------------------------------

 OUTPUT CONTROL FOR STRESS PERIOD    1   TIME STEP   77
    SAVE HEAD FOR ALL LAYERS
    SAVE DRAWDOWN FOR ALL LAYERS
    SAVE BUDGET
    PRINT BUDGET
 UBDSV1 SAVING "         STORAGE" ON UNIT   9 AT TIME STEP 77, STRESS PERIOD   1
 UBDSV2 SAVING "   CONSTANT HEAD" ON UNIT   9 AT TIME STEP 77, STRESS PERIOD   1
 UBDSV1 SAVING "FLOW RIGHT FACE " ON UNIT   9 AT TIME STEP 77, STRESS PERIOD   1
 UBDSV1 SAVING "FLOW FRONT FACE " ON UNIT   9 AT TIME STEP 77, STRESS PERIOD   1
 UBDSV4 SAVING "   RIVER LEAKAGE" ON UNIT   9 AT TIME STEP 77, STRESS PERIOD   1
 UBDSV3 SAVING "        RECHARGE" ON UNIT   9 AT TIME STEP 77, STRESS PERIOD   1

 HEAD WILL BE SAVED ON UNIT 5037 AT END OF TIME STEP   77, STRESS PERIOD    1

 DRAWDOWN WILL BE SAVED ON UNIT   38 AT END OF TIME STEP   77, STRESS PERIOD    1
1
  VOLUMETRIC BUDGET FOR ENTIRE MODEL AT END OF TIME STEP   77, STRESS PERIOD   1
  ------------------------------------------------------------------------------

     CUMULATIVE VOLUMES      L**3       RATES FOR THIS TIME STEP      L**3/T
     ------------------                 ------------------------

           IN:                                      IN:
           ---                                      ---
             STORAGE =     4757345.5000               STORAGE =       76348.0938
       CONSTANT HEAD =           0.0000         CONSTANT HEAD =           0.0000
       RIVER LEAKAGE =      484318.2812         RIVER LEAKAGE =        3418.7234
            RECHARGE =     2896883.7500              RECHARGE =      135456.9375

            TOTAL IN =     8138548.0000              TOTAL IN =      215223.7500

          OUT:                                     OUT:
          ----                                     ----
             STORAGE =     4313054.0000               STORAGE =       87649.1328
       CONSTANT HEAD =           0.0000         CONSTANT HEAD =           0.0000
       RIVER LEAKAGE =     3824942.5000         RIVER LEAKAGE =      127574.5781
            RECHARGE =           0.0000              RECHARGE =           0.0000

           TOTAL OUT =     8137996.5000             TOTAL OUT =      215223.7188

            IN - OUT =         551.5000              IN - OUT =       3.1250E-02

 PERCENT DISCREPANCY =           0.01     PERCENT DISCREPANCY =           0.00






         TIME SUMMARY AT END OF TIME STEP   77 IN STRESS PERIOD    1
                    SECONDS     MINUTES      HOURS       DAYS        YEARS
                    -----------------------------------------------------------
   TIME STEP LENGTH  86400.      1440.0      24.000      1.0000     2.73785E-03
 STRESS PERIOD TIME 6.65280E+06 1.10880E+05  1848.0      77.000     0.21081    
         TOTAL TIME 6.65280E+06 1.10880E+05  1848.0      77.000     0.21081    
1
 
 SOLVING FOR HEAD 
                                                   Max.-Head-Change                        Max.-Flux-Residual
  Residual-Control   Outer-Iter.   Inner-Iter.     Column Row Layer    Max.-Head-Change    Column Row Layer    Max.-Flux-Residual            L2-New               L2-Old           Solver-Max-Delh
          0                 1           2            11    6     1      -0.8046834497E+03      27    4    1       0.1704103331E+04      0.1146464789E+05      0.3096867595E+00     -0.8046834497E+03
          0                 2           2            11    6     1       0.6949539127E+02      27    4    1      -0.1707146693E+03      0.1147135868E+04      0.1146464789E+05      0.6949539127E+02
          1                 2           0            11    6     1       0.4864677306E+02       8    4    1       0.2109240839E+04      0.2110019055E+04      0.1147135868E+04      0.6949539127E+02
          2                 2           0            11    6     1       0.3405274056E+02       8    4    1       0.1463447824E+04      0.1513018616E+04      0.2110019055E+04      0.6949539127E+02
          0                 3           2            11    6     1       0.3714567788E+02       8    4    1       0.1011334430E+04      0.1182587444E+04      0.1513018616E+04      0.3714567788E+02
          0                 4           2            11    6     1       0.1856931041E+01       8    4    1       0.1795005799E+03      0.1820970738E+03      0.1182587444E+04      0.1856931041E+01
          0                 5           2            11    6     1       0.9281034332E-01       8    4    1       0.3186049520E+02      0.3189729515E+02      0.1820970738E+03      0.9281034332E-01

    ------------------------------------------------
       NWT REQUIRED            5 OUTER ITERATIONS 
       AND A TOTAL OF         10 INNER ITERATIONS.
    ------------------------------------------------

 OUTPUT CONTROL FOR STRESS PERIOD    1   TIME STEP   78
    SAVE HEAD FOR ALL LAYERS
    SAVE DRAWDOWN FOR ALL LAYERS
    SAVE BUDGET
    PRINT BUDGET
 UBDSV1 SAVING "         STORAGE" ON UNIT   9 AT TIME STEP 78, STRESS PERIOD   1
 UBDSV2 SAVING "   CONSTANT HEAD" ON UNIT   9 AT TIME STEP 78, STRESS PERIOD   1
 UBDSV1 SAVING "FLOW RIGHT FACE " ON UNIT   9 AT TIME STEP 78, STRESS PERIOD   1
 UBDSV1 SAVING "FLOW FRONT FACE " ON UNIT   9 AT TIME STEP 78, STRESS PERIOD   1
 UBDSV4 SAVING "   RIVER LEAKAGE" ON UNIT   9 AT TIME STEP 78, STRESS PERIOD   1
 UBDSV3 SAVING "        RECHARGE" ON UNIT   9 AT TIME STEP 78, STRESS PERIOD   1

 HEAD WILL BE SAVED ON UNIT 5037 AT END OF TIME STEP   78, STRESS PERIOD    1

 DRAWDOWN WILL BE SAVED ON UNIT   38 AT END OF TIME STEP   78, STRESS PERIOD    1
1
  VOLUMETRIC BUDGET FOR ENTIRE MODEL AT END OF TIME STEP   78, STRESS PERIOD   1
  ------------------------------------------------------------------------------

     CUMULATIVE VOLUMES      L**3       RATES FOR THIS TIME STEP      L**3/T
     ------------------                 ------------------------

           IN:                                      IN:
           ---                                      ---
             STORAGE =     4832061.0000               STORAGE =       74715.4844
       CONSTANT HEAD =           0.0000         CONSTANT HEAD =           0.0000
       RIVER LEAKAGE =      486975.2812         RIVER LEAKAGE =        2657.0020
            RECHARGE =     2971332.2500              RECHARGE =       74448.5781

            TOTAL IN =     8290369.0000              TOTAL IN =      151821.0625

          OUT:                                     OUT:
          ----                                     ----
             STORAGE =     4372192.5000               STORAGE =       59138.4453
       CONSTANT HEAD =           0.0000         CONSTANT HEAD =           0.0000
       RIVER LEAKAGE =     3917619.0000         RIVER LEAKAGE =       92676.3984
            RECHARGE =           0.0000              RECHARGE =           0.0000

           TOTAL OUT =     8289811.5000             TOTAL OUT =      151814.8438

            IN - OUT =         557.5000              IN - OUT =           6.2188

 PERCENT DISCREPANCY =           0.01     PERCENT DISCREPANCY =           0.00






         TIME SUMMARY AT END OF TIME STEP   78 IN STRESS PERIOD    1
                    SECONDS     MINUTES      HOURS       DAYS        YEARS
                    -----------------------------------------------------------
   TIME STEP LENGTH  86400.      1440.0      24.000      1.0000     2.73785E-03
 STRESS PERIOD TIME 6.73920E+06 1.12320E+05  1872.0      78.000     0.21355    
         TOTAL TIME 6.73920E+06 1.12320E+05  1872.0      78.000     0.21355    
1
 
 SOLVING FOR HEAD 
                                                   Max.-Head-Change                        Max.-Flux-Residual
  Residual-Control   Outer-Iter.   Inner-Iter.     Column Row Layer    Max.-Head-Change    Column Row Layer    Max.-Flux-Residual            L2-New               L2-Old           Solver-Max-Delh
          0                 1           2            11    6     1      -0.6850706608E+03      31    5    1       0.1417851680E+04      0.7795510592E+04      0.3189729515E+02     -0.6850706608E+03
          0                 2           2            11    6     1       0.5916519572E+02      31    5    1       0.7212293509E+03      0.1253419058E+04      0.7795510592E+04      0.5916519572E+02
          0                 3           2            11    6     1       0.2958289426E+01      31    5    1      -0.7443758578E+02      0.1117177609E+03      0.1253419058E+04      0.2958289426E+01
          0                 4           2            11    6     1       0.1478863701E+00      31    5    1      -0.3721869688E+01      0.5585752129E+01      0.1117177609E+03      0.1478863701E+00
          0                 5           2            11    6     1       0.7391434835E-02      31    5    1      -0.1860557857E+00      0.2792239730E+00      0.5585752129E+01      0.7391434835E-02

    ------------------------------------------------
       NWT REQUIRED            5 OUTER ITERATIONS 
       AND A TOTAL OF         10 INNER ITERATIONS.
    ------------------------------------------------

 OUTPUT CONTROL FOR STRESS PERIOD    1   TIME STEP   79
    SAVE HEAD FOR ALL LAYERS
    SAVE DRAWDOWN FOR ALL LAYERS
    SAVE BUDGET
    PRINT BUDGET
 UBDSV1 SAVING "         STORAGE" ON UNIT   9 AT TIME STEP 79, STRESS PERIOD   1
 UBDSV2 SAVING "   CONSTANT HEAD" ON UNIT   9 AT TIME STEP 79, STRESS PERIOD   1
 UBDSV1 SAVING "FLOW RIGHT FACE " ON UNIT   9 AT TIME STEP 79, STRESS PERIOD   1
 UBDSV1 SAVING "FLOW FRONT FACE " ON UNIT   9 AT TIME STEP 79, STRESS PERIOD   1
 UBDSV4 SAVING "   RIVER LEAKAGE" ON UNIT   9 AT TIME STEP 79, STRESS PERIOD   1
 UBDSV3 SAVING "        RECHARGE" ON UNIT   9 AT TIME STEP 79, STRESS PERIOD   1

 HEAD WILL BE SAVED ON UNIT 5037 AT END OF TIME STEP   79, STRESS PERIOD    1

 DRAWDOWN WILL BE SAVED ON UNIT   38 AT END OF TIME STEP   79, STRESS PERIOD    1
1
  VOLUMETRIC BUDGET FOR ENTIRE MODEL AT END OF TIME STEP   79, STRESS PERIOD   1
  ------------------------------------------------------------------------------

     CUMULATIVE VOLUMES      L**3       RATES FOR THIS TIME STEP      L**3/T
     ------------------                 ------------------------

           IN:                                      IN:
           ---                                      ---
             STORAGE =     4895110.5000               STORAGE =       63049.5078
       CONSTANT HEAD =           0.0000         CONSTANT HEAD =           0.0000
       RIVER LEAKAGE =      490913.1875         RIVER LEAKAGE =        3937.8967
            RECHARGE =     3013203.2500              RECHARGE =       41871.0742

            TOTAL IN =     8399227.0000              TOTAL IN =      108858.4844

          OUT:                                     OUT:
          ----                                     ----
             STORAGE =     4415110.5000               STORAGE =       42917.8555
       CONSTANT HEAD =           0.0000         CONSTANT HEAD =           0.0000
       RIVER LEAKAGE =     3983559.5000         RIVER LEAKAGE =       65940.6094
            RECHARGE =           0.0000              RECHARGE =           0.0000

           TOTAL OUT =     8398670.0000             TOTAL OUT =      108858.4688

            IN - OUT =         557.0000              IN - OUT =       1.5625E-02

 PERCENT DISCREPANCY =           0.01     PERCENT DISCREPANCY =           0.00






         TIME SUMMARY AT END OF TIME STEP   79 IN STRESS PERIOD    1
                    SECONDS     MINUTES      HOURS       DAYS        YEARS
                    -----------------------------------------------------------
   TIME STEP LENGTH  86400.      1440.0      24.000      1.0000     2.73785E-03
 STRESS PERIOD TIME 6.82560E+06 1.13760E+05  1896.0      79.000     0.21629    
         TOTAL TIME 6.82560E+06 1.13760E+05  1896.0      79.000     0.21629    
1
 
 SOLVING FOR HEAD 
                                                   Max.-Head-Change                        Max.-Flux-Residual
  Residual-Control   Outer-Iter.   Inner-Iter.     Column Row Layer    Max.-Head-Change    Column Row Layer    Max.-Flux-Residual            L2-New               L2-Old           Solver-Max-Delh
          0                 1           2            11    6     1      -0.5460502875E+03      31    5    1       0.1126947928E+04      0.6348146349E+04      0.2792239730E+00     -0.5460502875E+03
          0                 2           2            11    6     1       0.4715889687E+02      21   19    1       0.2409592939E+03      0.7217382321E+03      0.6348146349E+04      0.4715889687E+02
          0                 3           2            11    6     1       0.2357968469E+01      21   19    1      -0.2481605874E+02      0.4598369968E+02      0.7217382321E+03      0.2357968469E+01
          0                 4           2            11    6     1       0.1178760248E+00      21   19    1      -0.1240813200E+01      0.2299694594E+01      0.4598369968E+02      0.1178760248E+00
          0                 5           2            11    6     1       0.5891502748E-02      21   19    1      -0.6202813398E-01      0.1153079983E+00      0.2299694594E+01      0.5891502748E-02

    ------------------------------------------------
       NWT REQUIRED            5 OUTER ITERATIONS 
       AND A TOTAL OF         10 INNER ITERATIONS.
    ------------------------------------------------

 OUTPUT CONTROL FOR STRESS PERIOD    1   TIME STEP   80
    SAVE HEAD FOR ALL LAYERS
    SAVE DRAWDOWN FOR ALL LAYERS
    SAVE BUDGET
    PRINT BUDGET
 UBDSV1 SAVING "         STORAGE" ON UNIT   9 AT TIME STEP 80, STRESS PERIOD   1
 UBDSV2 SAVING "   CONSTANT HEAD" ON UNIT   9 AT TIME STEP 80, STRESS PERIOD   1
 UBDSV1 SAVING "FLOW RIGHT FACE " ON UNIT   9 AT TIME STEP 80, STRESS PERIOD   1
 UBDSV1 SAVING "FLOW FRONT FACE " ON UNIT   9 AT TIME STEP 80, STRESS PERIOD   1
 UBDSV4 SAVING "   RIVER LEAKAGE" ON UNIT   9 AT TIME STEP 80, STRESS PERIOD   1
 UBDSV3 SAVING "        RECHARGE" ON UNIT   9 AT TIME STEP 80, STRESS PERIOD   1

 HEAD WILL BE SAVED ON UNIT 5037 AT END OF TIME STEP   80, STRESS PERIOD    1

 DRAWDOWN WILL BE SAVED ON UNIT   38 AT END OF TIME STEP   80, STRESS PERIOD    1
1
  VOLUMETRIC BUDGET FOR ENTIRE MODEL AT END OF TIME STEP   80, STRESS PERIOD   1
  ------------------------------------------------------------------------------

     CUMULATIVE VOLUMES      L**3       RATES FOR THIS TIME STEP      L**3/T
     ------------------                 ------------------------

           IN:                                      IN:
           ---                                      ---
             STORAGE =     4953103.5000               STORAGE =       57993.1445
       CONSTANT HEAD =           0.0000         CONSTANT HEAD =           0.0000
       RIVER LEAKAGE =      495670.4375         RIVER LEAKAGE =        4757.2456
            RECHARGE =     3037601.0000              RECHARGE =       24397.8652

            TOTAL IN =     8486375.0000              TOTAL IN =       87148.2578

          OUT:                                     OUT:
          ----                                     ----
             STORAGE =     4448619.5000               STORAGE =       33509.0898
       CONSTANT HEAD =           0.0000         CONSTANT HEAD =           0.0000
       RIVER LEAKAGE =     4037198.7500         RIVER LEAKAGE =       53639.1484
            RECHARGE =           0.0000              RECHARGE =           0.0000

           TOTAL OUT =     8485818.0000             TOTAL OUT =       87148.2344

            IN - OUT =         557.0000              IN - OUT =       2.3438E-02

 PERCENT DISCREPANCY =           0.01     PERCENT DISCREPANCY =           0.00






         TIME SUMMARY AT END OF TIME STEP   80 IN STRESS PERIOD    1
                    SECONDS     MINUTES      HOURS       DAYS        YEARS
                    -----------------------------------------------------------
   TIME STEP LENGTH  86400.      1440.0      24.000      1.0000     2.73785E-03
 STRESS PERIOD TIME 6.91200E+06 1.15200E+05  1920.0      80.000     0.21903    
         TOTAL TIME 6.91200E+06 1.15200E+05  1920.0      80.000     0.21903    
1
 
 SOLVING FOR HEAD 
                                                   Max.-Head-Change                        Max.-Flux-Residual
  Residual-Control   Outer-Iter.   Inner-Iter.     Column Row Layer    Max.-Head-Change    Column Row Layer    Max.-Flux-Residual            L2-New               L2-Old           Solver-Max-Delh
          0                 1           2            11    6     1      -0.4192207991E+03      26   13    1      -0.8316983029E+03      0.6647207360E+04      0.1153079983E+00     -0.4192207991E+03
          0                 2           2            11    6     1       0.3620544343E+02      26   13    1       0.8316983153E+02      0.6679391701E+03      0.6647207360E+04      0.3620544343E+02
          0                 3           2            11    6     1       0.1810290310E+01      26   13    1       0.4158489470E+01      0.3341237895E+02      0.6679391701E+03      0.1810290310E+01
          0                 4           2            11    6     1       0.9049731932E-01      26   13    1       0.2078827833E+00      0.1670287597E+01      0.3341237895E+02      0.9049731932E-01

    ------------------------------------------------
       NWT REQUIRED            4 OUTER ITERATIONS 
       AND A TOTAL OF          8 INNER ITERATIONS.
    ------------------------------------------------

 OUTPUT CONTROL FOR STRESS PERIOD    1   TIME STEP   81
    SAVE HEAD FOR ALL LAYERS
    SAVE DRAWDOWN FOR ALL LAYERS
    SAVE BUDGET
    PRINT BUDGET
 UBDSV1 SAVING "         STORAGE" ON UNIT   9 AT TIME STEP 81, STRESS PERIOD   1
 UBDSV2 SAVING "   CONSTANT HEAD" ON UNIT   9 AT TIME STEP 81, STRESS PERIOD   1
 UBDSV1 SAVING "FLOW RIGHT FACE " ON UNIT   9 AT TIME STEP 81, STRESS PERIOD   1
 UBDSV1 SAVING "FLOW FRONT FACE " ON UNIT   9 AT TIME STEP 81, STRESS PERIOD   1
 UBDSV4 SAVING "   RIVER LEAKAGE" ON UNIT   9 AT TIME STEP 81, STRESS PERIOD   1
 UBDSV3 SAVING "        RECHARGE" ON UNIT   9 AT TIME STEP 81, STRESS PERIOD   1

 HEAD WILL BE SAVED ON UNIT 5037 AT END OF TIME STEP   81, STRESS PERIOD    1

 DRAWDOWN WILL BE SAVED ON UNIT   38 AT END OF TIME STEP   81, STRESS PERIOD    1
1
  VOLUMETRIC BUDGET FOR ENTIRE MODEL AT END OF TIME STEP   81, STRESS PERIOD   1
  ------------------------------------------------------------------------------

     CUMULATIVE VOLUMES      L**3       RATES FOR THIS TIME STEP      L**3/T
     ------------------                 ------------------------

           IN:                                      IN:
           ---                                      ---
             STORAGE =     5016800.0000               STORAGE =       63696.5391
       CONSTANT HEAD =           0.0000         CONSTANT HEAD =           0.0000
       RIVER LEAKAGE =      499360.2812         RIVER LEAKAGE =        3689.8496
            RECHARGE =     3052531.7500              RECHARGE =       14930.6396

            TOTAL IN =     8568692.0000              TOTAL IN =       82317.0312

          OUT:                                     OUT:
          ----                                     ----
             STORAGE =     4475998.5000               STORAGE =       27378.8809
       CONSTANT HEAD =           0.0000         CONSTANT HEAD =           0.0000
       RIVER LEAKAGE =     4092136.0000         RIVER LEAKAGE =       54937.2617
            RECHARGE =           0.0000              RECHARGE =           0.0000

           TOTAL OUT =     8568134.0000             TOTAL OUT =       82316.1406

            IN - OUT =         558.0000              IN - OUT =           0.8906

 PERCENT DISCREPANCY =           0.01     PERCENT DISCREPANCY =           0.00






         TIME SUMMARY AT END OF TIME STEP   81 IN STRESS PERIOD    1
                    SECONDS     MINUTES      HOURS       DAYS        YEARS
                    -----------------------------------------------------------
   TIME STEP LENGTH  86400.      1440.0      24.000      1.0000     2.73785E-03
 STRESS PERIOD TIME 6.99840E+06 1.16640E+05  1944.0      81.000     0.22177    
         TOTAL TIME 6.99840E+06 1.16640E+05  1944.0      81.000     0.22177    
1
 
 SOLVING FOR HEAD 
                                                   Max.-Head-Change                        Max.-Flux-Residual
  Residual-Control   Outer-Iter.   Inner-Iter.     Column Row Layer    Max.-Head-Change    Column Row Layer    Max.-Flux-Residual            L2-New               L2-Old           Solver-Max-Delh
          0                 1           2            11    6     1      -0.3144594060E+03      13    3    1      -0.7596867547E+03      0.4947872170E+04      0.1670287597E+01     -0.3144594060E+03
          0                 2           2            11    6     1       0.2715785888E+02      35   14    1       0.1974613459E+04      0.2087609265E+04      0.4947872170E+04      0.2715785888E+02
          0                 3           2            11    6     1       0.1357906549E+01      35   14    1       0.9832967611E+02      0.1305151430E+03      0.2087609265E+04      0.1357906549E+01
          0                 4           2            11    6     1       0.6788242854E-01      27   21    1       0.1175725306E+02      0.1303209244E+02      0.1305151430E+03      0.6788242854E-01

    ------------------------------------------------
       NWT REQUIRED            4 OUTER ITERATIONS 
       AND A TOTAL OF          8 INNER ITERATIONS.
    ------------------------------------------------

 OUTPUT CONTROL FOR STRESS PERIOD    1   TIME STEP   82
    SAVE HEAD FOR ALL LAYERS
    SAVE DRAWDOWN FOR ALL LAYERS
    SAVE BUDGET
    PRINT BUDGET
 UBDSV1 SAVING "         STORAGE" ON UNIT   9 AT TIME STEP 82, STRESS PERIOD   1
 UBDSV2 SAVING "   CONSTANT HEAD" ON UNIT   9 AT TIME STEP 82, STRESS PERIOD   1
 UBDSV1 SAVING "FLOW RIGHT FACE " ON UNIT   9 AT TIME STEP 82, STRESS PERIOD   1
 UBDSV1 SAVING "FLOW FRONT FACE " ON UNIT   9 AT TIME STEP 82, STRESS PERIOD   1
 UBDSV4 SAVING "   RIVER LEAKAGE" ON UNIT   9 AT TIME STEP 82, STRESS PERIOD   1
 UBDSV3 SAVING "        RECHARGE" ON UNIT   9 AT TIME STEP 82, STRESS PERIOD   1

 HEAD WILL BE SAVED ON UNIT 5037 AT END OF TIME STEP   82, STRESS PERIOD    1

 DRAWDOWN WILL BE SAVED ON UNIT   38 AT END OF TIME STEP   82, STRESS PERIOD    1
1
  VOLUMETRIC BUDGET FOR ENTIRE MODEL AT END OF TIME STEP   82, STRESS PERIOD   1
  ------------------------------------------------------------------------------

     CUMULATIVE VOLUMES      L**3       RATES FOR THIS TIME STEP      L**3/T
     ------------------                 ------------------------

           IN:                                      IN:
           ---                                      ---
             STORAGE =     5071047.5000               STORAGE =       54247.5195
       CONSTANT HEAD =           0.0000         CONSTANT HEAD =           0.0000
       RIVER LEAKAGE =      503922.0312         RIVER LEAKAGE =        4561.7534
            RECHARGE =     3062247.0000              RECHARGE =        9715.3652

            TOTAL IN =     8637216.0000              TOTAL IN =       68524.6406

          OUT:                                     OUT:
          ----                                     ----
             STORAGE =     4499210.0000               STORAGE =       23211.4961
       CONSTANT HEAD =           0.0000         CONSTANT HEAD =           0.0000
       RIVER LEAKAGE =     4137446.5000         RIVER LEAKAGE =       45310.4297
            RECHARGE =           0.0000              RECHARGE =           0.0000

           TOTAL OUT =     8636656.0000             TOTAL OUT =       68521.9219

            IN - OUT =         560.0000              IN - OUT =           2.7188

 PERCENT DISCREPANCY =           0.01     PERCENT DISCREPANCY =           0.00






         TIME SUMMARY AT END OF TIME STEP   82 IN STRESS PERIOD    1
                    SECONDS     MINUTES      HOURS       DAYS        YEARS
                    -----------------------------------------------------------
   TIME STEP LENGTH  86400.      1440.0      24.000      1.0000     2.73785E-03
 STRESS PERIOD TIME 7.08480E+06 1.18080E+05  1968.0      82.000     0.22450    
         TOTAL TIME 7.08480E+06 1.18080E+05  1968.0      82.000     0.22450    
1
 
 SOLVING FOR HEAD 
                                                   Max.-Head-Change                        Max.-Flux-Residual
  Residual-Control   Outer-Iter.   Inner-Iter.     Column Row Layer    Max.-Head-Change    Column Row Layer    Max.-Flux-Residual            L2-New               L2-Old           Solver-Max-Delh
          0                 1           2            11    6     1      -0.2323703476E+03      13    3    1      -0.7091524671E+03      0.4389711173E+04      0.1303209244E+02     -0.2323703476E+03
          0                 2           2            11    6     1       0.2006834897E+02      28    6    1       0.7394162431E+02      0.4577338531E+03      0.4389711173E+04      0.2006834897E+02
          0                 3           2            11    6     1       0.1003427502E+01      27   21    1      -0.6762029421E+01      0.2390137781E+02      0.4577338531E+03      0.1003427502E+01
          0                 4           2            11    6     1       0.5016184342E-01      27   21    1      -0.3381021723E+00      0.1194857279E+01      0.2390137781E+02      0.5016184342E-01

    ------------------------------------------------
       NWT REQUIRED            4 OUTER ITERATIONS 
       AND A TOTAL OF          8 INNER ITERATIONS.
    ------------------------------------------------

 OUTPUT CONTROL FOR STRESS PERIOD    1   TIME STEP   83
    SAVE HEAD FOR ALL LAYERS
    SAVE DRAWDOWN FOR ALL LAYERS
    SAVE BUDGET
    PRINT BUDGET
 UBDSV1 SAVING "         STORAGE" ON UNIT   9 AT TIME STEP 83, STRESS PERIOD   1
 UBDSV2 SAVING "   CONSTANT HEAD" ON UNIT   9 AT TIME STEP 83, STRESS PERIOD   1
 UBDSV1 SAVING "FLOW RIGHT FACE " ON UNIT   9 AT TIME STEP 83, STRESS PERIOD   1
 UBDSV1 SAVING "FLOW FRONT FACE " ON UNIT   9 AT TIME STEP 83, STRESS PERIOD   1
 UBDSV4 SAVING "   RIVER LEAKAGE" ON UNIT   9 AT TIME STEP 83, STRESS PERIOD   1
 UBDSV3 SAVING "        RECHARGE" ON UNIT   9 AT TIME STEP 83, STRESS PERIOD   1

 HEAD WILL BE SAVED ON UNIT 5037 AT END OF TIME STEP   83, STRESS PERIOD    1

 DRAWDOWN WILL BE SAVED ON UNIT   38 AT END OF TIME STEP   83, STRESS PERIOD    1
1
  VOLUMETRIC BUDGET FOR ENTIRE MODEL AT END OF TIME STEP   83, STRESS PERIOD   1
  ------------------------------------------------------------------------------

     CUMULATIVE VOLUMES      L**3       RATES FOR THIS TIME STEP      L**3/T
     ------------------                 ------------------------

           IN:                                      IN:
           ---                                      ---
             STORAGE =     5121090.5000               STORAGE =       50043.2148
       CONSTANT HEAD =           0.0000         CONSTANT HEAD =           0.0000
       RIVER LEAKAGE =      508861.4062         RIVER LEAKAGE =        4939.3687
            RECHARGE =     3069017.7500              RECHARGE =        6770.6372

            TOTAL IN =     8698970.0000              TOTAL IN =       61753.2188

          OUT:                                     OUT:
          ----                                     ----
             STORAGE =     4519356.5000               STORAGE =       20146.7324
       CONSTANT HEAD =           0.0000         CONSTANT HEAD =           0.0000
       RIVER LEAKAGE =     4179052.5000         RIVER LEAKAGE =       41606.0781
            RECHARGE =           0.0000              RECHARGE =           0.0000

           TOTAL OUT =     8698409.0000             TOTAL OUT =       61752.8125

            IN - OUT =         561.0000              IN - OUT =           0.4062

 PERCENT DISCREPANCY =           0.01     PERCENT DISCREPANCY =           0.00






         TIME SUMMARY AT END OF TIME STEP   83 IN STRESS PERIOD    1
                    SECONDS     MINUTES      HOURS       DAYS        YEARS
                    -----------------------------------------------------------
   TIME STEP LENGTH  86400.      1440.0      24.000      1.0000     2.73785E-03
 STRESS PERIOD TIME 7.17120E+06 1.19520E+05  1992.0      83.000     0.22724    
         TOTAL TIME 7.17120E+06 1.19520E+05  1992.0      83.000     0.22724    
1
 
 SOLVING FOR HEAD 
                                                   Max.-Head-Change                        Max.-Flux-Residual
  Residual-Control   Outer-Iter.   Inner-Iter.     Column Row Layer    Max.-Head-Change    Column Row Layer    Max.-Flux-Residual            L2-New               L2-Old           Solver-Max-Delh
          0                 1           2            11    6     1      -0.1700030683E+03      13    3    1      -0.6508919618E+03      0.4027321174E+04      0.1194857279E+01     -0.1700030683E+03
          0                 2           2            11    6     1       0.1468208372E+02      13    3    1       0.6508919715E+02      0.4089334799E+03      0.4027321174E+04      0.1468208372E+02
          0                 3           2            11    6     1       0.7341115408E+00      39   18    1       0.2000710580E+03      0.2011096204E+03      0.4089334799E+03      0.7341115408E+00
          0                 4           2            11    6     1       0.3669860362E-01      39   18    1       0.3551015570E+02      0.3552504378E+02      0.2011096204E+03      0.3669860362E-01

    ------------------------------------------------
       NWT REQUIRED            4 OUTER ITERATIONS 
       AND A TOTAL OF          8 INNER ITERATIONS.
    ------------------------------------------------

 OUTPUT CONTROL FOR STRESS PERIOD    1   TIME STEP   84
    SAVE HEAD FOR ALL LAYERS
    SAVE DRAWDOWN FOR ALL LAYERS
    SAVE BUDGET
    PRINT BUDGET
 UBDSV1 SAVING "         STORAGE" ON UNIT   9 AT TIME STEP 84, STRESS PERIOD   1
 UBDSV2 SAVING "   CONSTANT HEAD" ON UNIT   9 AT TIME STEP 84, STRESS PERIOD   1
 UBDSV1 SAVING "FLOW RIGHT FACE " ON UNIT   9 AT TIME STEP 84, STRESS PERIOD   1
 UBDSV1 SAVING "FLOW FRONT FACE " ON UNIT   9 AT TIME STEP 84, STRESS PERIOD   1
 UBDSV4 SAVING "   RIVER LEAKAGE" ON UNIT   9 AT TIME STEP 84, STRESS PERIOD   1
 UBDSV3 SAVING "        RECHARGE" ON UNIT   9 AT TIME STEP 84, STRESS PERIOD   1

 HEAD WILL BE SAVED ON UNIT 5037 AT END OF TIME STEP   84, STRESS PERIOD    1

 DRAWDOWN WILL BE SAVED ON UNIT   38 AT END OF TIME STEP   84, STRESS PERIOD    1
1
  VOLUMETRIC BUDGET FOR ENTIRE MODEL AT END OF TIME STEP   84, STRESS PERIOD   1
  ------------------------------------------------------------------------------

     CUMULATIVE VOLUMES      L**3       RATES FOR THIS TIME STEP      L**3/T
     ------------------                 ------------------------

           IN:                                      IN:
           ---                                      ---
             STORAGE =     5168628.0000               STORAGE =       47537.5234
       CONSTANT HEAD =           0.0000         CONSTANT HEAD =           0.0000
       RIVER LEAKAGE =      513969.0938         RIVER LEAKAGE =        5107.6772
            RECHARGE =     3074067.5000              RECHARGE =        5049.6284

            TOTAL IN =     8756664.0000              TOTAL IN =       57694.8281

          OUT:                                     OUT:
          ----                                     ----
             STORAGE =     4537302.0000               STORAGE =       17945.5117
       CONSTANT HEAD =           0.0000         CONSTANT HEAD =           0.0000
       RIVER LEAKAGE =     4218795.0000         RIVER LEAKAGE =       39742.6602
            RECHARGE =           0.0000              RECHARGE =           0.0000

           TOTAL OUT =     8756097.0000             TOTAL OUT =       57688.1719

            IN - OUT =         567.0000              IN - OUT =           6.6562

 PERCENT DISCREPANCY =           0.01     PERCENT DISCREPANCY =           0.01






         TIME SUMMARY AT END OF TIME STEP   84 IN STRESS PERIOD    1
                    SECONDS     MINUTES      HOURS       DAYS        YEARS
                    -----------------------------------------------------------
   TIME STEP LENGTH  86400.      1440.0      24.000      1.0000     2.73785E-03
 STRESS PERIOD TIME 7.25760E+06 1.20960E+05  2016.0      84.000     0.22998    
         TOTAL TIME 7.25760E+06 1.20960E+05  2016.0      84.000     0.22998    
1
 
 SOLVING FOR HEAD 
                                                   Max.-Head-Change                        Max.-Flux-Residual
  Residual-Control   Outer-Iter.   Inner-Iter.     Column Row Layer    Max.-Head-Change    Column Row Layer    Max.-Flux-Residual            L2-New               L2-Old           Solver-Max-Delh
          0                 1           2            11    6     1      -0.1235339095E+03      39   16    1      -0.6044157045E+03      0.3771031716E+04      0.3552504378E+02     -0.1235339095E+03
          0                 2           2            11    6     1       0.1066884001E+02      39   18    1       0.1502222118E+03      0.4121442404E+03      0.3771031716E+04      0.1066884001E+02
          0                 3           2            11    6     1       0.5334473448E+00      39   18    1      -0.1503939990E+02      0.2455121092E+02      0.4121442404E+03      0.5334473448E+00
          0                 4           2            11    6     1       0.2666729996E-01      39   18    1      -0.7519640316E+00      0.1227404165E+01      0.2455121092E+02      0.2666729996E-01

    ------------------------------------------------
       NWT REQUIRED            4 OUTER ITERATIONS 
       AND A TOTAL OF          8 INNER ITERATIONS.
    ------------------------------------------------

 OUTPUT CONTROL FOR STRESS PERIOD    1   TIME STEP   85
    SAVE HEAD FOR ALL LAYERS
    SAVE DRAWDOWN FOR ALL LAYERS
    SAVE BUDGET
    PRINT BUDGET
 UBDSV1 SAVING "         STORAGE" ON UNIT   9 AT TIME STEP 85, STRESS PERIOD   1
 UBDSV2 SAVING "   CONSTANT HEAD" ON UNIT   9 AT TIME STEP 85, STRESS PERIOD   1
 UBDSV1 SAVING "FLOW RIGHT FACE " ON UNIT   9 AT TIME STEP 85, STRESS PERIOD   1
 UBDSV1 SAVING "FLOW FRONT FACE " ON UNIT   9 AT TIME STEP 85, STRESS PERIOD   1
 UBDSV4 SAVING "   RIVER LEAKAGE" ON UNIT   9 AT TIME STEP 85, STRESS PERIOD   1
 UBDSV3 SAVING "        RECHARGE" ON UNIT   9 AT TIME STEP 85, STRESS PERIOD   1

 HEAD WILL BE SAVED ON UNIT 5037 AT END OF TIME STEP   85, STRESS PERIOD    1

 DRAWDOWN WILL BE SAVED ON UNIT   38 AT END OF TIME STEP   85, STRESS PERIOD    1
1
  VOLUMETRIC BUDGET FOR ENTIRE MODEL AT END OF TIME STEP   85, STRESS PERIOD   1
  ------------------------------------------------------------------------------

     CUMULATIVE VOLUMES      L**3       RATES FOR THIS TIME STEP      L**3/T
     ------------------                 ------------------------

           IN:                                      IN:
           ---                                      ---
             STORAGE =     5214256.0000               STORAGE =       45628.1641
       CONSTANT HEAD =           0.0000         CONSTANT HEAD =           0.0000
       RIVER LEAKAGE =      519170.6250         RIVER LEAKAGE =        5201.5381
            RECHARGE =     3078065.0000              RECHARGE =        3997.4644

            TOTAL IN =     8811492.0000              TOTAL IN =       54827.1680

          OUT:                                     OUT:
          ----                                     ----
             STORAGE =     4553512.0000               STORAGE =       16210.1758
       CONSTANT HEAD =           0.0000         CONSTANT HEAD =           0.0000
       RIVER LEAKAGE =     4257411.5000         RIVER LEAKAGE =       38616.6289
            RECHARGE =           0.0000              RECHARGE =           0.0000

           TOTAL OUT =     8810924.0000             TOTAL OUT =       54826.8047

            IN - OUT =         568.0000              IN - OUT =           0.3633

 PERCENT DISCREPANCY =           0.01     PERCENT DISCREPANCY =           0.00






         TIME SUMMARY AT END OF TIME STEP   85 IN STRESS PERIOD    1
                    SECONDS     MINUTES      HOURS       DAYS        YEARS
                    -----------------------------------------------------------
   TIME STEP LENGTH  86400.      1440.0      24.000      1.0000     2.73785E-03
 STRESS PERIOD TIME 7.34400E+06 1.22400E+05  2040.0      85.000     0.23272    
         TOTAL TIME 7.34400E+06 1.22400E+05  2040.0      85.000     0.23272    
1
 
 SOLVING FOR HEAD 
                                                   Max.-Head-Change                        Max.-Flux-Residual
  Residual-Control   Outer-Iter.   Inner-Iter.     Column Row Layer    Max.-Head-Change    Column Row Layer    Max.-Flux-Residual            L2-New               L2-Old           Solver-Max-Delh
          0                 1           2            11    6     1      -0.8935041584E+02      39   16    1      -0.6032078594E+03      0.3583527259E+04      0.1227404165E+01     -0.8935041584E+02
          0                 2           2            11    6     1       0.7716627072E+01      16    7    1       0.1022140002E+03      0.3944453772E+03      0.3583527259E+04      0.7716627072E+01
          0                 3           2            11    6     1       0.3858352189E+00      16   15    1      -0.9058189870E+01      0.2093559420E+02      0.3944453772E+03      0.3858352189E+00
          0                 4           2            11    6     1       0.1928809584E-01      16   15    1      -0.4529098607E+00      0.1046601682E+01      0.2093559420E+02      0.1928809584E-01

    ------------------------------------------------
       NWT REQUIRED            4 OUTER ITERATIONS 
       AND A TOTAL OF          8 INNER ITERATIONS.
    ------------------------------------------------

 OUTPUT CONTROL FOR STRESS PERIOD    1   TIME STEP   86
    SAVE HEAD FOR ALL LAYERS
    SAVE DRAWDOWN FOR ALL LAYERS
    SAVE BUDGET
    PRINT BUDGET
 UBDSV1 SAVING "         STORAGE" ON UNIT   9 AT TIME STEP 86, STRESS PERIOD   1
 UBDSV2 SAVING "   CONSTANT HEAD" ON UNIT   9 AT TIME STEP 86, STRESS PERIOD   1
 UBDSV1 SAVING "FLOW RIGHT FACE " ON UNIT   9 AT TIME STEP 86, STRESS PERIOD   1
 UBDSV1 SAVING "FLOW FRONT FACE " ON UNIT   9 AT TIME STEP 86, STRESS PERIOD   1
 UBDSV4 SAVING "   RIVER LEAKAGE" ON UNIT   9 AT TIME STEP 86, STRESS PERIOD   1
 UBDSV3 SAVING "        RECHARGE" ON UNIT   9 AT TIME STEP 86, STRESS PERIOD   1

 HEAD WILL BE SAVED ON UNIT 5037 AT END OF TIME STEP   86, STRESS PERIOD    1

 DRAWDOWN WILL BE SAVED ON UNIT   38 AT END OF TIME STEP   86, STRESS PERIOD    1
1
  VOLUMETRIC BUDGET FOR ENTIRE MODEL AT END OF TIME STEP   86, STRESS PERIOD   1
  ------------------------------------------------------------------------------

     CUMULATIVE VOLUMES      L**3       RATES FOR THIS TIME STEP      L**3/T
     ------------------                 ------------------------

           IN:                                      IN:
           ---                                      ---
             STORAGE =     5258320.0000               STORAGE =       44063.9141
       CONSTANT HEAD =           0.0000         CONSTANT HEAD =           0.0000
       RIVER LEAKAGE =      524429.1250         RIVER LEAKAGE =        5258.5132
            RECHARGE =     3081383.2500              RECHARGE =        3318.3291

            TOTAL IN =     8864132.0000              TOTAL IN =       52640.7539

          OUT:                                     OUT:
          ----                                     ----
             STORAGE =     4568294.0000               STORAGE =       14782.1924
       CONSTANT HEAD =           0.0000         CONSTANT HEAD =           0.0000
       RIVER LEAKAGE =     4295269.5000         RIVER LEAKAGE =       37858.1953
            RECHARGE =           0.0000              RECHARGE =           0.0000

           TOTAL OUT =     8863564.0000             TOTAL OUT =       52640.3867

            IN - OUT =         568.0000              IN - OUT =           0.3672

 PERCENT DISCREPANCY =           0.01     PERCENT DISCREPANCY =           0.00






         TIME SUMMARY AT END OF TIME STEP   86 IN STRESS PERIOD    1
                    SECONDS     MINUTES      HOURS       DAYS        YEARS
                    -----------------------------------------------------------
   TIME STEP LENGTH  86400.      1440.0      24.000      1.0000     2.73785E-03
 STRESS PERIOD TIME 7.43040E+06 1.23840E+05  2064.0      86.000     0.23546    
         TOTAL TIME 7.43040E+06 1.23840E+05  2064.0      86.000     0.23546    
1
 
 SOLVING FOR HEAD 
                                                   Max.-Head-Change                        Max.-Flux-Residual
  Residual-Control   Outer-Iter.   Inner-Iter.     Column Row Layer    Max.-Head-Change    Column Row Layer    Max.-Flux-Residual            L2-New               L2-Old           Solver-Max-Delh
          0                 1           2            11    6     1      -0.6442029974E+02      39   16    1      -0.5989552769E+03      0.3445955171E+04      0.1046601682E+01     -0.6442029974E+02
          0                 2           2            11    6     1       0.5563821567E+01       8    6    1       0.1821122893E+03      0.4323325874E+03      0.3445955171E+04      0.5563821567E+01
          0                 3           2            11    6     1       0.2781938716E+00       8    6    1      -0.1850148068E+02      0.3084640822E+02      0.4323325874E+03      0.2781938716E+00
          0                 4           2            11    6     1       0.1390705100E-01       8    6    1      -0.9250652823E+00      0.1542210798E+01      0.3084640822E+02      0.1390705100E-01

    ------------------------------------------------
       NWT REQUIRED            4 OUTER ITERATIONS 
       AND A TOTAL OF          8 INNER ITERATIONS.
    ------------------------------------------------

 OUTPUT CONTROL FOR STRESS PERIOD    1   TIME STEP   87
    SAVE HEAD FOR ALL LAYERS
    SAVE DRAWDOWN FOR ALL LAYERS
    SAVE BUDGET
    PRINT BUDGET
 UBDSV1 SAVING "         STORAGE" ON UNIT   9 AT TIME STEP 87, STRESS PERIOD   1
 UBDSV2 SAVING "   CONSTANT HEAD" ON UNIT   9 AT TIME STEP 87, STRESS PERIOD   1
 UBDSV1 SAVING "FLOW RIGHT FACE " ON UNIT   9 AT TIME STEP 87, STRESS PERIOD   1
 UBDSV1 SAVING "FLOW FRONT FACE " ON UNIT   9 AT TIME STEP 87, STRESS PERIOD   1
 UBDSV4 SAVING "   RIVER LEAKAGE" ON UNIT   9 AT TIME STEP 87, STRESS PERIOD   1
 UBDSV3 SAVING "        RECHARGE" ON UNIT   9 AT TIME STEP 87, STRESS PERIOD   1

 HEAD WILL BE SAVED ON UNIT 5037 AT END OF TIME STEP   87, STRESS PERIOD    1

 DRAWDOWN WILL BE SAVED ON UNIT   38 AT END OF TIME STEP   87, STRESS PERIOD    1
1
  VOLUMETRIC BUDGET FOR ENTIRE MODEL AT END OF TIME STEP   87, STRESS PERIOD   1
  ------------------------------------------------------------------------------

     CUMULATIVE VOLUMES      L**3       RATES FOR THIS TIME STEP      L**3/T
     ------------------                 ------------------------

           IN:                                      IN:
           ---                                      ---
             STORAGE =     5301025.5000               STORAGE =       42705.4023
       CONSTANT HEAD =           0.0000         CONSTANT HEAD =           0.0000
       RIVER LEAKAGE =      529725.0625         RIVER LEAKAGE =        5295.9194
            RECHARGE =     3084236.2500              RECHARGE =        2853.1079

            TOTAL IN =     8914987.0000              TOTAL IN =       50854.4297

          OUT:                                     OUT:
          ----                                     ----
             STORAGE =     4581833.0000               STORAGE =       13538.8984
       CONSTANT HEAD =           0.0000         CONSTANT HEAD =           0.0000
       RIVER LEAKAGE =     4332584.5000         RIVER LEAKAGE =       37315.2109
            RECHARGE =           0.0000              RECHARGE =           0.0000

           TOTAL OUT =     8914418.0000             TOTAL OUT =       50854.1094

            IN - OUT =         569.0000              IN - OUT =           0.3203

 PERCENT DISCREPANCY =           0.01     PERCENT DISCREPANCY =           0.00






         TIME SUMMARY AT END OF TIME STEP   87 IN STRESS PERIOD    1
                    SECONDS     MINUTES      HOURS       DAYS        YEARS
                    -----------------------------------------------------------
   TIME STEP LENGTH  86400.      1440.0      24.000      1.0000     2.73785E-03
 STRESS PERIOD TIME 7.51680E+06 1.25280E+05  2088.0      87.000     0.23819    
         TOTAL TIME 7.51680E+06 1.25280E+05  2088.0      87.000     0.23819    
1
 
 SOLVING FOR HEAD 
                                                   Max.-Head-Change                        Max.-Flux-Residual
  Residual-Control   Outer-Iter.   Inner-Iter.     Column Row Layer    Max.-Head-Change    Column Row Layer    Max.-Flux-Residual            L2-New               L2-Old           Solver-Max-Delh
          0                 1           2            13    4     1      -0.4817126596E+02      39   16    1      -0.5931597581E+03      0.3330138885E+04      0.1542210798E+01     -0.4817126596E+02
          0                 2           2            13    4     1       0.4160245863E+01      39   16    1       0.5926432484E+02      0.3321639202E+03      0.3330138885E+04      0.4160245863E+01
          1                 2           0            13    4     1       0.2912172054E+01      32    5    1       0.4052981610E+03      0.4056361531E+03      0.3321639202E+03      0.4160245863E+01
          0                 3           2            13    4     1       0.1393697008E+01      32    5    1       0.2693309909E+03      0.2913252322E+03      0.4056361531E+03      0.1393697008E+01
          0                 4           2            13    4     1       0.6967161148E-01      32    5    1       0.4781013459E+02      0.4813145004E+02      0.2913252322E+03      0.6967161148E-01

    ------------------------------------------------
       NWT REQUIRED            4 OUTER ITERATIONS 
       AND A TOTAL OF          8 INNER ITERATIONS.
    ------------------------------------------------

 OUTPUT CONTROL FOR STRESS PERIOD    1   TIME STEP   88
    SAVE HEAD FOR ALL LAYERS
    SAVE DRAWDOWN FOR ALL LAYERS
    SAVE BUDGET
    PRINT BUDGET
 UBDSV1 SAVING "         STORAGE" ON UNIT   9 AT TIME STEP 88, STRESS PERIOD   1
 UBDSV2 SAVING "   CONSTANT HEAD" ON UNIT   9 AT TIME STEP 88, STRESS PERIOD   1
 UBDSV1 SAVING "FLOW RIGHT FACE " ON UNIT   9 AT TIME STEP 88, STRESS PERIOD   1
 UBDSV1 SAVING "FLOW FRONT FACE " ON UNIT   9 AT TIME STEP 88, STRESS PERIOD   1
 UBDSV4 SAVING "   RIVER LEAKAGE" ON UNIT   9 AT TIME STEP 88, STRESS PERIOD   1
 UBDSV3 SAVING "        RECHARGE" ON UNIT   9 AT TIME STEP 88, STRESS PERIOD   1

 HEAD WILL BE SAVED ON UNIT 5037 AT END OF TIME STEP   88, STRESS PERIOD    1

 DRAWDOWN WILL BE SAVED ON UNIT   38 AT END OF TIME STEP   88, STRESS PERIOD    1
1
  VOLUMETRIC BUDGET FOR ENTIRE MODEL AT END OF TIME STEP   88, STRESS PERIOD   1
  ------------------------------------------------------------------------------

     CUMULATIVE VOLUMES      L**3       RATES FOR THIS TIME STEP      L**3/T
     ------------------                 ------------------------

           IN:                                      IN:
           ---                                      ---
             STORAGE =     5342582.5000               STORAGE =       41556.7773
       CONSTANT HEAD =           0.0000         CONSTANT HEAD =           0.0000
       RIVER LEAKAGE =      535047.0625         RIVER LEAKAGE =        5322.0010
            RECHARGE =     3086751.2500              RECHARGE =        2515.1038

            TOTAL IN =     8964381.0000              TOTAL IN =       49393.8828

          OUT:                                     OUT:
          ----                                     ----
             STORAGE =     4594309.5000               STORAGE =       12476.7051
       CONSTANT HEAD =           0.0000         CONSTANT HEAD =           0.0000
       RIVER LEAKAGE =     4369491.0000         RIVER LEAKAGE =       36906.2578
            RECHARGE =           0.0000              RECHARGE =           0.0000

           TOTAL OUT =     8963800.0000             TOTAL OUT =       49382.9609

            IN - OUT =         581.0000              IN - OUT =          10.9219

 PERCENT DISCREPANCY =           0.01     PERCENT DISCREPANCY =           0.02






         TIME SUMMARY AT END OF TIME STEP   88 IN STRESS PERIOD    1
                    SECONDS     MINUTES      HOURS       DAYS        YEARS
                    -----------------------------------------------------------
   TIME STEP LENGTH  86400.      1440.0      24.000      1.0000     2.73785E-03
 STRESS PERIOD TIME 7.60320E+06 1.26720E+05  2112.0      88.000     0.24093    
         TOTAL TIME 7.60320E+06 1.26720E+05  2112.0      88.000     0.24093    
1
 
 SOLVING FOR HEAD 
                                                   Max.-Head-Change                        Max.-Flux-Residual
  Residual-Control   Outer-Iter.   Inner-Iter.     Column Row Layer    Max.-Head-Change    Column Row Layer    Max.-Flux-Residual            L2-New               L2-Old           Solver-Max-Delh
          0                 1           2            13    4     1      -0.3636524481E+02      39   16    1      -0.5866151701E+03      0.3236245636E+04      0.4813145004E+02     -0.3636524481E+02
          0                 2           2            13    4     1       0.3140634904E+01      32    5    1       0.3920521702E+03      0.5061224718E+03      0.3236245636E+04      0.3140634904E+01
          0                 3           2            13    4     1       0.1570333186E+00      32    5    1      -0.3957353421E+02      0.4290255313E+02      0.5061224718E+03      0.1570333186E+00
          0                 4           2            13    4     1       0.7850174252E-02      32    5    1      -0.1978674480E+01      0.2145063857E+01      0.4290255313E+02      0.7850174252E-02

    ------------------------------------------------
       NWT REQUIRED            4 OUTER ITERATIONS 
       AND A TOTAL OF          8 INNER ITERATIONS.
    ------------------------------------------------

 OUTPUT CONTROL FOR STRESS PERIOD    1   TIME STEP   89
    SAVE HEAD FOR ALL LAYERS
    SAVE DRAWDOWN FOR ALL LAYERS
    SAVE BUDGET
    PRINT BUDGET
 UBDSV1 SAVING "         STORAGE" ON UNIT   9 AT TIME STEP 89, STRESS PERIOD   1
 UBDSV2 SAVING "   CONSTANT HEAD" ON UNIT   9 AT TIME STEP 89, STRESS PERIOD   1
 UBDSV1 SAVING "FLOW RIGHT FACE " ON UNIT   9 AT TIME STEP 89, STRESS PERIOD   1
 UBDSV1 SAVING "FLOW FRONT FACE " ON UNIT   9 AT TIME STEP 89, STRESS PERIOD   1
 UBDSV4 SAVING "   RIVER LEAKAGE" ON UNIT   9 AT TIME STEP 89, STRESS PERIOD   1
 UBDSV3 SAVING "        RECHARGE" ON UNIT   9 AT TIME STEP 89, STRESS PERIOD   1

 HEAD WILL BE SAVED ON UNIT 5037 AT END OF TIME STEP   89, STRESS PERIOD    1

 DRAWDOWN WILL BE SAVED ON UNIT   38 AT END OF TIME STEP   89, STRESS PERIOD    1
1
  VOLUMETRIC BUDGET FOR ENTIRE MODEL AT END OF TIME STEP   89, STRESS PERIOD   1
  ------------------------------------------------------------------------------

     CUMULATIVE VOLUMES      L**3       RATES FOR THIS TIME STEP      L**3/T
     ------------------                 ------------------------

           IN:                                      IN:
           ---                                      ---
             STORAGE =     5383165.0000               STORAGE =       40582.6211
       CONSTANT HEAD =           0.0000         CONSTANT HEAD =           0.0000
       RIVER LEAKAGE =      540389.9375         RIVER LEAKAGE =        5342.8486
            RECHARGE =     3089007.5000              RECHARGE =        2256.2136

            TOTAL IN =     9012562.0000              TOTAL IN =       48181.6836

          OUT:                                     OUT:
          ----                                     ----
             STORAGE =     4605905.0000               STORAGE =       11595.5234
       CONSTANT HEAD =           0.0000         CONSTANT HEAD =           0.0000
       RIVER LEAKAGE =     4406077.0000         RIVER LEAKAGE =       36585.8672
            RECHARGE =           0.0000              RECHARGE =           0.0000

           TOTAL OUT =     9011982.0000             TOTAL OUT =       48181.3906

            IN - OUT =         580.0000              IN - OUT =           0.2930

 PERCENT DISCREPANCY =           0.01     PERCENT DISCREPANCY =           0.00






         TIME SUMMARY AT END OF TIME STEP   89 IN STRESS PERIOD    1
                    SECONDS     MINUTES      HOURS       DAYS        YEARS
                    -----------------------------------------------------------
   TIME STEP LENGTH  86400.      1440.0      24.000      1.0000     2.73785E-03
 STRESS PERIOD TIME 7.68960E+06 1.28160E+05  2136.0      89.000     0.24367    
         TOTAL TIME 7.68960E+06 1.28160E+05  2136.0      89.000     0.24367    
1
 
 SOLVING FOR HEAD 
                                                   Max.-Head-Change                        Max.-Flux-Residual
  Residual-Control   Outer-Iter.   Inner-Iter.     Column Row Layer    Max.-Head-Change    Column Row Layer    Max.-Flux-Residual            L2-New               L2-Old           Solver-Max-Delh
          0                 1           2            13    4     1      -0.2762036266E+02      39   16    1      -0.5797822448E+03      0.3154185785E+04      0.2145063857E+01     -0.2762036266E+02
          0                 2           2            13    4     1       0.2399017237E+01      39   16    1       0.5792842994E+02      0.3169818469E+03      0.3154185785E+04      0.2399017237E+01
          0                 3           2            13    4     1       0.1199520637E+00      21    1    1      -0.3203834826E+01      0.1614261069E+02      0.3169818469E+03      0.1199520637E+00
          0                 4           2            13    4     1       0.5996463745E-02      21    1    1      -0.1601904097E+00      0.8069736860E+00      0.1614261069E+02      0.5996463745E-02

    ------------------------------------------------
       NWT REQUIRED            4 OUTER ITERATIONS 
       AND A TOTAL OF          8 INNER ITERATIONS.
    ------------------------------------------------

 OUTPUT CONTROL FOR STRESS PERIOD    1   TIME STEP   90
    SAVE HEAD FOR ALL LAYERS
    SAVE DRAWDOWN FOR ALL LAYERS
    SAVE BUDGET
    PRINT BUDGET
 UBDSV1 SAVING "         STORAGE" ON UNIT   9 AT TIME STEP 90, STRESS PERIOD   1
 UBDSV2 SAVING "   CONSTANT HEAD" ON UNIT   9 AT TIME STEP 90, STRESS PERIOD   1
 UBDSV1 SAVING "FLOW RIGHT FACE " ON UNIT   9 AT TIME STEP 90, STRESS PERIOD   1
 UBDSV1 SAVING "FLOW FRONT FACE " ON UNIT   9 AT TIME STEP 90, STRESS PERIOD   1
 UBDSV4 SAVING "   RIVER LEAKAGE" ON UNIT   9 AT TIME STEP 90, STRESS PERIOD   1
 UBDSV3 SAVING "        RECHARGE" ON UNIT   9 AT TIME STEP 90, STRESS PERIOD   1

 HEAD WILL BE SAVED ON UNIT 5037 AT END OF TIME STEP   90, STRESS PERIOD    1

 DRAWDOWN WILL BE SAVED ON UNIT   38 AT END OF TIME STEP   90, STRESS PERIOD    1
1
  VOLUMETRIC BUDGET FOR ENTIRE MODEL AT END OF TIME STEP   90, STRESS PERIOD   1
  ------------------------------------------------------------------------------

     CUMULATIVE VOLUMES      L**3       RATES FOR THIS TIME STEP      L**3/T
     ------------------                 ------------------------

           IN:                                      IN:
           ---                                      ---
             STORAGE =     5422922.5000               STORAGE =       39757.3438
       CONSTANT HEAD =           0.0000         CONSTANT HEAD =           0.0000
       RIVER LEAKAGE =      545750.0000         RIVER LEAKAGE =        5360.0781
            RECHARGE =     3091056.5000              RECHARGE =        2049.0869

            TOTAL IN =     9059729.0000              TOTAL IN =       47166.5078

          OUT:                                     OUT:
          ----                                     ----
             STORAGE =     4616744.5000               STORAGE =       10839.6689
       CONSTANT HEAD =           0.0000         CONSTANT HEAD =           0.0000
       RIVER LEAKAGE =     4442403.5000         RIVER LEAKAGE =       36326.4805
            RECHARGE =           0.0000              RECHARGE =           0.0000

           TOTAL OUT =     9059148.0000             TOTAL OUT =       47166.1484

            IN - OUT =         581.0000              IN - OUT =           0.3594

 PERCENT DISCREPANCY =           0.01     PERCENT DISCREPANCY =           0.00






         TIME SUMMARY AT END OF TIME STEP   90 IN STRESS PERIOD    1
                    SECONDS     MINUTES      HOURS       DAYS        YEARS
                    -----------------------------------------------------------
   TIME STEP LENGTH  86400.      1440.0      24.000      1.0000     2.73785E-03
 STRESS PERIOD TIME 7.77600E+06 1.29600E+05  2160.0      90.000     0.24641    
         TOTAL TIME 7.77600E+06 1.29600E+05  2160.0      90.000     0.24641    
1
 
 SOLVING FOR HEAD 
                                                   Max.-Head-Change                        Max.-Flux-Residual
  Residual-Control   Outer-Iter.   Inner-Iter.     Column Row Layer    Max.-Head-Change    Column Row Layer    Max.-Flux-Residual            L2-New               L2-Old           Solver-Max-Delh
          0                 1           2            13    4     1      -0.2102030110E+02      39   16    1      -0.5728740584E+03      0.3092862176E+04      0.8069736860E+00     -0.2102030110E+02
          0                 2           2            13    4     1       0.1815389714E+01      18    6    1       0.4808133722E+03      0.5723007944E+03      0.3092862176E+04      0.1815389714E+01
          0                 3           2            13    4     1       0.9077039517E-01      18    6    1       0.2401408449E+02      0.2869129693E+02      0.5723007944E+03      0.9077039517E-01

    ------------------------------------------------
       NWT REQUIRED            3 OUTER ITERATIONS 
       AND A TOTAL OF          6 INNER ITERATIONS.
    ------------------------------------------------

 OUTPUT CONTROL FOR STRESS PERIOD    1   TIME STEP   91
    SAVE HEAD FOR ALL LAYERS
    SAVE DRAWDOWN FOR ALL LAYERS
    SAVE BUDGET
    PRINT BUDGET
 UBDSV1 SAVING "         STORAGE" ON UNIT   9 AT TIME STEP 91, STRESS PERIOD   1
 UBDSV2 SAVING "   CONSTANT HEAD" ON UNIT   9 AT TIME STEP 91, STRESS PERIOD   1
 UBDSV1 SAVING "FLOW RIGHT FACE " ON UNIT   9 AT TIME STEP 91, STRESS PERIOD   1
 UBDSV1 SAVING "FLOW FRONT FACE " ON UNIT   9 AT TIME STEP 91, STRESS PERIOD   1
 UBDSV4 SAVING "   RIVER LEAKAGE" ON UNIT   9 AT TIME STEP 91, STRESS PERIOD   1
 UBDSV3 SAVING "        RECHARGE" ON UNIT   9 AT TIME STEP 91, STRESS PERIOD   1

 HEAD WILL BE SAVED ON UNIT 5037 AT END OF TIME STEP   91, STRESS PERIOD    1

 DRAWDOWN WILL BE SAVED ON UNIT   38 AT END OF TIME STEP   91, STRESS PERIOD    1
1
  VOLUMETRIC BUDGET FOR ENTIRE MODEL AT END OF TIME STEP   91, STRESS PERIOD   1
  ------------------------------------------------------------------------------

     CUMULATIVE VOLUMES      L**3       RATES FOR THIS TIME STEP      L**3/T
     ------------------                 ------------------------

           IN:                                      IN:
           ---                                      ---
             STORAGE =     5462018.0000               STORAGE =       39095.5781
       CONSTANT HEAD =           0.0000         CONSTANT HEAD =           0.0000
       RIVER LEAKAGE =      551122.1250         RIVER LEAKAGE =        5372.1421
            RECHARGE =     3092934.2500              RECHARGE =        1877.6710

            TOTAL IN =     9106074.0000              TOTAL IN =       46345.3906

          OUT:                                     OUT:
          ----                                     ----
             STORAGE =     4626970.5000               STORAGE =       10225.8789
       CONSTANT HEAD =           0.0000         CONSTANT HEAD =           0.0000
       RIVER LEAKAGE =     4478514.5000         RIVER LEAKAGE =       36111.1211
            RECHARGE =           0.0000              RECHARGE =           0.0000

           TOTAL OUT =     9105485.0000             TOTAL OUT =       46337.0000

            IN - OUT =         589.0000              IN - OUT =           8.3906

 PERCENT DISCREPANCY =           0.01     PERCENT DISCREPANCY =           0.02






         TIME SUMMARY AT END OF TIME STEP   91 IN STRESS PERIOD    1
                    SECONDS     MINUTES      HOURS       DAYS        YEARS
                    -----------------------------------------------------------
   TIME STEP LENGTH  86400.      1440.0      24.000      1.0000     2.73785E-03
 STRESS PERIOD TIME 7.86240E+06 1.31040E+05  2184.0      91.000     0.24914    
         TOTAL TIME 7.86240E+06 1.31040E+05  2184.0      91.000     0.24914    
1
 
 SOLVING FOR HEAD 
                                                   Max.-Head-Change                        Max.-Flux-Residual
  Residual-Control   Outer-Iter.   Inner-Iter.     Column Row Layer    Max.-Head-Change    Column Row Layer    Max.-Flux-Residual            L2-New               L2-Old           Solver-Max-Delh
          0                 1           2            13    4     1      -0.1606181000E+02      39   16    1      -0.5659770990E+03      0.3046271351E+04      0.2869129693E+02     -0.1606181000E+02
          0                 2           2            13    4     1       0.1387156374E+01      39   16    1       0.5654992276E+02      0.3045386290E+03      0.3046271351E+04      0.1387156374E+01
          0                 3           2            33    9     1       0.2518702224E+00      39   16    1       0.2827138760E+01      0.1532182236E+02      0.3045386290E+03      0.2518702224E+00
          0                 4           2            33    9     1       0.1259111857E-01      33    8    1      -0.1632104243E+00      0.7820709627E+00      0.1532182236E+02      0.1259111857E-01

    ------------------------------------------------
       NWT REQUIRED            4 OUTER ITERATIONS 
       AND A TOTAL OF          8 INNER ITERATIONS.
    ------------------------------------------------

 OUTPUT CONTROL FOR STRESS PERIOD    1   TIME STEP   92
    SAVE HEAD FOR ALL LAYERS
    SAVE DRAWDOWN FOR ALL LAYERS
    SAVE BUDGET
    PRINT BUDGET
 UBDSV1 SAVING "         STORAGE" ON UNIT   9 AT TIME STEP 92, STRESS PERIOD   1
 UBDSV2 SAVING "   CONSTANT HEAD" ON UNIT   9 AT TIME STEP 92, STRESS PERIOD   1
 UBDSV1 SAVING "FLOW RIGHT FACE " ON UNIT   9 AT TIME STEP 92, STRESS PERIOD   1
 UBDSV1 SAVING "FLOW FRONT FACE " ON UNIT   9 AT TIME STEP 92, STRESS PERIOD   1
 UBDSV4 SAVING "   RIVER LEAKAGE" ON UNIT   9 AT TIME STEP 92, STRESS PERIOD   1
 UBDSV3 SAVING "        RECHARGE" ON UNIT   9 AT TIME STEP 92, STRESS PERIOD   1

 HEAD WILL BE SAVED ON UNIT 5037 AT END OF TIME STEP   92, STRESS PERIOD    1

 DRAWDOWN WILL BE SAVED ON UNIT   38 AT END OF TIME STEP   92, STRESS PERIOD    1
1
  VOLUMETRIC BUDGET FOR ENTIRE MODEL AT END OF TIME STEP   92, STRESS PERIOD   1
  ------------------------------------------------------------------------------

     CUMULATIVE VOLUMES      L**3       RATES FOR THIS TIME STEP      L**3/T
     ------------------                 ------------------------

           IN:                                      IN:
           ---                                      ---
             STORAGE =     5500540.0000               STORAGE =       38522.2266
       CONSTANT HEAD =           0.0000         CONSTANT HEAD =           0.0000
       RIVER LEAKAGE =      556502.4375         RIVER LEAKAGE =        5380.3433
            RECHARGE =     3094666.5000              RECHARGE =        1732.1693

            TOTAL IN =     9151709.0000              TOTAL IN =       45634.7383

          OUT:                                     OUT:
          ----                                     ----
             STORAGE =     4636677.5000               STORAGE =        9707.1416
       CONSTANT HEAD =           0.0000         CONSTANT HEAD =           0.0000
       RIVER LEAKAGE =     4514442.0000         RIVER LEAKAGE =       35927.2539
            RECHARGE =           0.0000              RECHARGE =           0.0000

           TOTAL OUT =     9151120.0000             TOTAL OUT =       45634.3945

            IN - OUT =         589.0000              IN - OUT =           0.3438

 PERCENT DISCREPANCY =           0.01     PERCENT DISCREPANCY =           0.00






         TIME SUMMARY AT END OF TIME STEP   92 IN STRESS PERIOD    1
                    SECONDS     MINUTES      HOURS       DAYS        YEARS
                    -----------------------------------------------------------
   TIME STEP LENGTH  86400.      1440.0      24.000      1.0000     2.73785E-03
 STRESS PERIOD TIME 7.94880E+06 1.32480E+05  2208.0      92.000     0.25188    
         TOTAL TIME 7.94880E+06 1.32480E+05  2208.0      92.000     0.25188    
1
 
 SOLVING FOR HEAD 
                                                   Max.-Head-Change                        Max.-Flux-Residual
  Residual-Control   Outer-Iter.   Inner-Iter.     Column Row Layer    Max.-Head-Change    Column Row Layer    Max.-Flux-Residual            L2-New               L2-Old           Solver-Max-Delh
          0                 1           2            13    4     1      -0.1236973451E+02      39   16    1      -0.5592191406E+03      0.3009294611E+04      0.7820709627E+00     -0.1236973451E+02
          0                 2           2            13    4     1       0.3554000663E+01      34    9    1       0.6292354855E+02      0.3203890021E+03      0.3009294611E+04      0.3554000663E+01
          0                 3           2            13    4     1       0.1777018837E+00      23   11    1      -0.3966921899E+01      0.1628440949E+02      0.3203890021E+03      0.1777018837E+00
          0                 4           2            13    4     1       0.8883405826E-02      23   11    1      -0.1983444812E+00      0.8140644516E+00      0.1628440949E+02      0.8883405826E-02

    ------------------------------------------------
       NWT REQUIRED            4 OUTER ITERATIONS 
       AND A TOTAL OF          8 INNER ITERATIONS.
    ------------------------------------------------

 OUTPUT CONTROL FOR STRESS PERIOD    1   TIME STEP   93
    SAVE HEAD FOR ALL LAYERS
    SAVE DRAWDOWN FOR ALL LAYERS
    SAVE BUDGET
    PRINT BUDGET
 UBDSV1 SAVING "         STORAGE" ON UNIT   9 AT TIME STEP 93, STRESS PERIOD   1
 UBDSV2 SAVING "   CONSTANT HEAD" ON UNIT   9 AT TIME STEP 93, STRESS PERIOD   1
 UBDSV1 SAVING "FLOW RIGHT FACE " ON UNIT   9 AT TIME STEP 93, STRESS PERIOD   1
 UBDSV1 SAVING "FLOW FRONT FACE " ON UNIT   9 AT TIME STEP 93, STRESS PERIOD   1
 UBDSV4 SAVING "   RIVER LEAKAGE" ON UNIT   9 AT TIME STEP 93, STRESS PERIOD   1
 UBDSV3 SAVING "        RECHARGE" ON UNIT   9 AT TIME STEP 93, STRESS PERIOD   1

 HEAD WILL BE SAVED ON UNIT 5037 AT END OF TIME STEP   93, STRESS PERIOD    1

 DRAWDOWN WILL BE SAVED ON UNIT   38 AT END OF TIME STEP   93, STRESS PERIOD    1
1
  VOLUMETRIC BUDGET FOR ENTIRE MODEL AT END OF TIME STEP   93, STRESS PERIOD   1
  ------------------------------------------------------------------------------

     CUMULATIVE VOLUMES      L**3       RATES FOR THIS TIME STEP      L**3/T
     ------------------                 ------------------------

           IN:                                      IN:
           ---                                      ---
             STORAGE =     5538589.5000               STORAGE =       38049.6484
       CONSTANT HEAD =           0.0000         CONSTANT HEAD =           0.0000
       RIVER LEAKAGE =      561890.0000         RIVER LEAKAGE =        5387.5322
            RECHARGE =     3096272.7500              RECHARGE =        1606.3308

            TOTAL IN =     9196752.0000              TOTAL IN =       45043.5117

          OUT:                                     OUT:
          ----                                     ----
             STORAGE =     4645948.5000               STORAGE =        9270.9004
       CONSTANT HEAD =           0.0000         CONSTANT HEAD =           0.0000
       RIVER LEAKAGE =     4550214.0000         RIVER LEAKAGE =       35772.2461
            RECHARGE =           0.0000              RECHARGE =           0.0000

           TOTAL OUT =     9196162.0000             TOTAL OUT =       45043.1484

            IN - OUT =         590.0000              IN - OUT =           0.3633

 PERCENT DISCREPANCY =           0.01     PERCENT DISCREPANCY =           0.00






         TIME SUMMARY AT END OF TIME STEP   93 IN STRESS PERIOD    1
                    SECONDS     MINUTES      HOURS       DAYS        YEARS
                    -----------------------------------------------------------
   TIME STEP LENGTH  86400.      1440.0      24.000      1.0000     2.73785E-03
 STRESS PERIOD TIME 8.03520E+06 1.33920E+05  2232.0      93.000     0.25462    
         TOTAL TIME 8.03520E+06 1.33920E+05  2232.0      93.000     0.25462    
1
 
 SOLVING FOR HEAD 
                                                   Max.-Head-Change                        Max.-Flux-Residual
  Residual-Control   Outer-Iter.   Inner-Iter.     Column Row Layer    Max.-Head-Change    Column Row Layer    Max.-Flux-Residual            L2-New               L2-Old           Solver-Max-Delh
          0                 1           2            11    6     1      -0.6301863870E+01      39   16    1      -0.5525977615E+03      0.2979066316E+04      0.8140644516E+00     -0.6301863870E+01
          0                 2           2            11    6     1       0.5442531662E+00      39   16    1       0.5521397769E+02      0.3023990319E+03      0.2979066316E+04      0.5442531662E+00
          0                 3           2            11    6     1       0.2721294373E-01      17   18    1      -0.5344872328E+01      0.1584764114E+02      0.3023990319E+03      0.2721294373E-01

    ------------------------------------------------
       NWT REQUIRED            3 OUTER ITERATIONS 
       AND A TOTAL OF          6 INNER ITERATIONS.
    ------------------------------------------------

 OUTPUT CONTROL FOR STRESS PERIOD    1   TIME STEP   94
    SAVE HEAD FOR ALL LAYERS
    SAVE DRAWDOWN FOR ALL LAYERS
    SAVE BUDGET
    PRINT BUDGET
 UBDSV1 SAVING "         STORAGE" ON UNIT   9 AT TIME STEP 94, STRESS PERIOD   1
 UBDSV2 SAVING "   CONSTANT HEAD" ON UNIT   9 AT TIME STEP 94, STRESS PERIOD   1
 UBDSV1 SAVING "FLOW RIGHT FACE " ON UNIT   9 AT TIME STEP 94, STRESS PERIOD   1
 UBDSV1 SAVING "FLOW FRONT FACE " ON UNIT   9 AT TIME STEP 94, STRESS PERIOD   1
 UBDSV4 SAVING "   RIVER LEAKAGE" ON UNIT   9 AT TIME STEP 94, STRESS PERIOD   1
 UBDSV3 SAVING "        RECHARGE" ON UNIT   9 AT TIME STEP 94, STRESS PERIOD   1

 HEAD WILL BE SAVED ON UNIT 5037 AT END OF TIME STEP   94, STRESS PERIOD    1

 DRAWDOWN WILL BE SAVED ON UNIT   38 AT END OF TIME STEP   94, STRESS PERIOD    1
1
  VOLUMETRIC BUDGET FOR ENTIRE MODEL AT END OF TIME STEP   94, STRESS PERIOD   1
  ------------------------------------------------------------------------------

     CUMULATIVE VOLUMES      L**3       RATES FOR THIS TIME STEP      L**3/T
     ------------------                 ------------------------

           IN:                                      IN:
           ---                                      ---
             STORAGE =     5576245.0000               STORAGE =       37655.5469
       CONSTANT HEAD =           0.0000         CONSTANT HEAD =           0.0000
       RIVER LEAKAGE =      567284.3750         RIVER LEAKAGE =        5394.3740
            RECHARGE =     3097768.7500              RECHARGE =        1495.9716

            TOTAL IN =     9241298.0000              TOTAL IN =       44545.8945

          OUT:                                     OUT:
          ----                                     ----
             STORAGE =     4654850.5000               STORAGE =        8901.8770
       CONSTANT HEAD =           0.0000         CONSTANT HEAD =           0.0000
       RIVER LEAKAGE =     4585851.0000         RIVER LEAKAGE =       35636.9609
            RECHARGE =           0.0000              RECHARGE =           0.0000

           TOTAL OUT =     9240702.0000             TOTAL OUT =       44538.8359

            IN - OUT =         596.0000              IN - OUT =           7.0586

 PERCENT DISCREPANCY =           0.01     PERCENT DISCREPANCY =           0.02






         TIME SUMMARY AT END OF TIME STEP   94 IN STRESS PERIOD    1
                    SECONDS     MINUTES      HOURS       DAYS        YEARS
                    -----------------------------------------------------------
   TIME STEP LENGTH  86400.      1440.0      24.000      1.0000     2.73785E-03
 STRESS PERIOD TIME 8.12160E+06 1.35360E+05  2256.0      94.000     0.25736    
         TOTAL TIME 8.12160E+06 1.35360E+05  2256.0      94.000     0.25736    
1
 
 SOLVING FOR HEAD 
                                                   Max.-Head-Change                        Max.-Flux-Residual
  Residual-Control   Outer-Iter.   Inner-Iter.     Column Row Layer    Max.-Head-Change    Column Row Layer    Max.-Flux-Residual            L2-New               L2-Old           Solver-Max-Delh
          0                 1           2            13    4     1      -0.4765202588E+01      39   16    1      -0.5460852273E+03      0.2952029350E+04      0.1584764114E+02     -0.4765202588E+01
          0                 2           2            13    4     1       0.4115396953E+00      39   16    1       0.5456370237E+02      0.2951407804E+03      0.2952029350E+04      0.4115396953E+00
          0                 3           2            13    4     1       0.2057718547E-01      39   16    1       0.2727849876E+01      0.1475641150E+02      0.2951407804E+03      0.2057718547E-01

    ------------------------------------------------
       NWT REQUIRED            3 OUTER ITERATIONS 
       AND A TOTAL OF          6 INNER ITERATIONS.
    ------------------------------------------------

 OUTPUT CONTROL FOR STRESS PERIOD    1   TIME STEP   95
    SAVE HEAD FOR ALL LAYERS
    SAVE DRAWDOWN FOR ALL LAYERS
    SAVE BUDGET
    PRINT BUDGET
 UBDSV1 SAVING "         STORAGE" ON UNIT   9 AT TIME STEP 95, STRESS PERIOD   1
 UBDSV2 SAVING "   CONSTANT HEAD" ON UNIT   9 AT TIME STEP 95, STRESS PERIOD   1
 UBDSV1 SAVING "FLOW RIGHT FACE " ON UNIT   9 AT TIME STEP 95, STRESS PERIOD   1
 UBDSV1 SAVING "FLOW FRONT FACE " ON UNIT   9 AT TIME STEP 95, STRESS PERIOD   1
 UBDSV4 SAVING "   RIVER LEAKAGE" ON UNIT   9 AT TIME STEP 95, STRESS PERIOD   1
 UBDSV3 SAVING "        RECHARGE" ON UNIT   9 AT TIME STEP 95, STRESS PERIOD   1

 HEAD WILL BE SAVED ON UNIT 5037 AT END OF TIME STEP   95, STRESS PERIOD    1

 DRAWDOWN WILL BE SAVED ON UNIT   38 AT END OF TIME STEP   95, STRESS PERIOD    1
1
  VOLUMETRIC BUDGET FOR ENTIRE MODEL AT END OF TIME STEP   95, STRESS PERIOD   1
  ------------------------------------------------------------------------------

     CUMULATIVE VOLUMES      L**3       RATES FOR THIS TIME STEP      L**3/T
     ------------------                 ------------------------

           IN:                                      IN:
           ---                                      ---
             STORAGE =     5613534.0000               STORAGE =       37289.1797
       CONSTANT HEAD =           0.0000         CONSTANT HEAD =           0.0000
       RIVER LEAKAGE =      572685.4375         RIVER LEAKAGE =        5401.0913
            RECHARGE =     3099167.0000              RECHARGE =        1398.1572

            TOTAL IN =     9285386.0000              TOTAL IN =       44088.4258

          OUT:                                     OUT:
          ----                                     ----
             STORAGE =     4663417.5000               STORAGE =        8567.0410
       CONSTANT HEAD =           0.0000         CONSTANT HEAD =           0.0000
       RIVER LEAKAGE =     4621365.0000         RIVER LEAKAGE =       35514.1797
            RECHARGE =           0.0000              RECHARGE =           0.0000

           TOTAL OUT =     9284782.0000             TOTAL OUT =       44081.2188

            IN - OUT =         604.0000              IN - OUT =           7.2070

 PERCENT DISCREPANCY =           0.01     PERCENT DISCREPANCY =           0.02






         TIME SUMMARY AT END OF TIME STEP   95 IN STRESS PERIOD    1
                    SECONDS     MINUTES      HOURS       DAYS        YEARS
                    -----------------------------------------------------------
   TIME STEP LENGTH  86400.      1440.0      24.000      1.0000     2.73785E-03
 STRESS PERIOD TIME 8.20800E+06 1.36800E+05  2280.0      95.000     0.26010    
         TOTAL TIME 8.20800E+06 1.36800E+05  2280.0      95.000     0.26010    
1
 
 SOLVING FOR HEAD 
                                                   Max.-Head-Change                        Max.-Flux-Residual
  Residual-Control   Outer-Iter.   Inner-Iter.     Column Row Layer    Max.-Head-Change    Column Row Layer    Max.-Flux-Residual            L2-New               L2-Old           Solver-Max-Delh
          0                 1           2            13    3     1      -0.4013107506E+01      39   16    1      -0.5397238688E+03      0.2927915256E+04      0.1475641150E+02     -0.4013107506E+01
          0                 2           2            11    6     1       0.9489132602E+00      27    4    1       0.2728573026E+03      0.4003909318E+03      0.2927915256E+04      0.9489132602E+00
          0                 3           2            11    6     1       0.4744620334E-01      22   11    1       0.3942210819E+02      0.4421439929E+02      0.4003909318E+03      0.4744620334E-01

    ------------------------------------------------
       NWT REQUIRED            3 OUTER ITERATIONS 
       AND A TOTAL OF          6 INNER ITERATIONS.
    ------------------------------------------------

 OUTPUT CONTROL FOR STRESS PERIOD    1   TIME STEP   96
    SAVE HEAD FOR ALL LAYERS
    SAVE DRAWDOWN FOR ALL LAYERS
    SAVE BUDGET
    PRINT BUDGET
 UBDSV1 SAVING "         STORAGE" ON UNIT   9 AT TIME STEP 96, STRESS PERIOD   1
 UBDSV2 SAVING "   CONSTANT HEAD" ON UNIT   9 AT TIME STEP 96, STRESS PERIOD   1
 UBDSV1 SAVING "FLOW RIGHT FACE " ON UNIT   9 AT TIME STEP 96, STRESS PERIOD   1
 UBDSV1 SAVING "FLOW FRONT FACE " ON UNIT   9 AT TIME STEP 96, STRESS PERIOD   1
 UBDSV4 SAVING "   RIVER LEAKAGE" ON UNIT   9 AT TIME STEP 96, STRESS PERIOD   1
 UBDSV3 SAVING "        RECHARGE" ON UNIT   9 AT TIME STEP 96, STRESS PERIOD   1

 HEAD WILL BE SAVED ON UNIT 5037 AT END OF TIME STEP   96, STRESS PERIOD    1

 DRAWDOWN WILL BE SAVED ON UNIT   38 AT END OF TIME STEP   96, STRESS PERIOD    1
1
  VOLUMETRIC BUDGET FOR ENTIRE MODEL AT END OF TIME STEP   96, STRESS PERIOD   1
  ------------------------------------------------------------------------------

     CUMULATIVE VOLUMES      L**3       RATES FOR THIS TIME STEP      L**3/T
     ------------------                 ------------------------

           IN:                                      IN:
           ---                                      ---
             STORAGE =     5650502.5000               STORAGE =       36968.4961
       CONSTANT HEAD =           0.0000         CONSTANT HEAD =           0.0000
       RIVER LEAKAGE =      578093.1875         RIVER LEAKAGE =        5407.7456
            RECHARGE =     3100477.7500              RECHARGE =        1310.7393

            TOTAL IN =     9329073.0000              TOTAL IN =       43686.9805

          OUT:                                     OUT:
          ----                                     ----
             STORAGE =     4671688.5000               STORAGE =        8271.0117
       CONSTANT HEAD =           0.0000         CONSTANT HEAD =           0.0000
       RIVER LEAKAGE =     4656766.0000         RIVER LEAKAGE =       35401.1328
            RECHARGE =           0.0000              RECHARGE =           0.0000

           TOTAL OUT =     9328454.0000             TOTAL OUT =       43672.1445

            IN - OUT =         619.0000              IN - OUT =          14.8359

 PERCENT DISCREPANCY =           0.01     PERCENT DISCREPANCY =           0.03






         TIME SUMMARY AT END OF TIME STEP   96 IN STRESS PERIOD    1
                    SECONDS     MINUTES      HOURS       DAYS        YEARS
                    -----------------------------------------------------------
   TIME STEP LENGTH  86400.      1440.0      24.000      1.0000     2.73785E-03
 STRESS PERIOD TIME 8.29440E+06 1.38240E+05  2304.0      96.000     0.26283    
         TOTAL TIME 8.29440E+06 1.38240E+05  2304.0      96.000     0.26283    
1
 
 SOLVING FOR HEAD 
                                                   Max.-Head-Change                        Max.-Flux-Residual
  Residual-Control   Outer-Iter.   Inner-Iter.     Column Row Layer    Max.-Head-Change    Column Row Layer    Max.-Flux-Residual            L2-New               L2-Old           Solver-Max-Delh
          0                 1           2            13    3     1      -0.3479003111E+01      39   16    1      -0.5335089683E+03      0.2906781478E+04      0.4421439929E+02     -0.3479003111E+01
          0                 2           2            13    3     1       0.3004588692E+00      39   16    1       0.5330797446E+02      0.2954625588E+03      0.2906781478E+04      0.3004588692E+00
          0                 3           2             6    9     1      -0.1866729202E-01      18    8    1       0.8478224769E+02      0.8619812935E+02      0.2954625588E+03     -0.1866729202E-01

    ------------------------------------------------
       NWT REQUIRED            3 OUTER ITERATIONS 
       AND A TOTAL OF          6 INNER ITERATIONS.
    ------------------------------------------------

 OUTPUT CONTROL FOR STRESS PERIOD    1   TIME STEP   97
    SAVE HEAD FOR ALL LAYERS
    SAVE DRAWDOWN FOR ALL LAYERS
    SAVE BUDGET
    PRINT BUDGET
 UBDSV1 SAVING "         STORAGE" ON UNIT   9 AT TIME STEP 97, STRESS PERIOD   1
 UBDSV2 SAVING "   CONSTANT HEAD" ON UNIT   9 AT TIME STEP 97, STRESS PERIOD   1
 UBDSV1 SAVING "FLOW RIGHT FACE " ON UNIT   9 AT TIME STEP 97, STRESS PERIOD   1
 UBDSV1 SAVING "FLOW FRONT FACE " ON UNIT   9 AT TIME STEP 97, STRESS PERIOD   1
 UBDSV4 SAVING "   RIVER LEAKAGE" ON UNIT   9 AT TIME STEP 97, STRESS PERIOD   1
 UBDSV3 SAVING "        RECHARGE" ON UNIT   9 AT TIME STEP 97, STRESS PERIOD   1

 HEAD WILL BE SAVED ON UNIT 5037 AT END OF TIME STEP   97, STRESS PERIOD    1

 DRAWDOWN WILL BE SAVED ON UNIT   38 AT END OF TIME STEP   97, STRESS PERIOD    1
1
  VOLUMETRIC BUDGET FOR ENTIRE MODEL AT END OF TIME STEP   97, STRESS PERIOD   1
  ------------------------------------------------------------------------------

     CUMULATIVE VOLUMES      L**3       RATES FOR THIS TIME STEP      L**3/T
     ------------------                 ------------------------

           IN:                                      IN:
           ---                                      ---
             STORAGE =     5687164.5000               STORAGE =       36661.8281
       CONSTANT HEAD =           0.0000         CONSTANT HEAD =           0.0000
       RIVER LEAKAGE =      583507.5625         RIVER LEAKAGE =        5414.3550
            RECHARGE =     3101709.7500              RECHARGE =        1232.0228

            TOTAL IN =     9372382.0000              TOTAL IN =       43308.2070

          OUT:                                     OUT:
          ----                                     ----
             STORAGE =     4679678.0000               STORAGE =        7989.4429
       CONSTANT HEAD =           0.0000         CONSTANT HEAD =           0.0000
       RIVER LEAKAGE =     4692063.0000         RIVER LEAKAGE =       35296.7578
            RECHARGE =           0.0000              RECHARGE =           0.0000

           TOTAL OUT =     9371741.0000             TOTAL OUT =       43286.1992

            IN - OUT =         641.0000              IN - OUT =          22.0078

 PERCENT DISCREPANCY =           0.01     PERCENT DISCREPANCY =           0.05






         TIME SUMMARY AT END OF TIME STEP   97 IN STRESS PERIOD    1
                    SECONDS     MINUTES      HOURS       DAYS        YEARS
                    -----------------------------------------------------------
   TIME STEP LENGTH  86400.      1440.0      24.000      1.0000     2.73785E-03
 STRESS PERIOD TIME 8.38080E+06 1.39680E+05  2328.0      97.000     0.26557    
         TOTAL TIME 8.38080E+06 1.39680E+05  2328.0      97.000     0.26557    
1
 
 SOLVING FOR HEAD 
                                                   Max.-Head-Change                        Max.-Flux-Residual
  Residual-Control   Outer-Iter.   Inner-Iter.     Column Row Layer    Max.-Head-Change    Column Row Layer    Max.-Flux-Residual            L2-New               L2-Old           Solver-Max-Delh
          0                 1           2            13    3     1      -0.3014177315E+01      39   16    1      -0.5274375176E+03      0.2886712619E+04      0.8619812935E+02     -0.3014177315E+01
          0                 2           2            13    3     1       0.2603148980E+00      39   16    1       0.5270174740E+02      0.2885631828E+03      0.2886712619E+04      0.2603148980E+00
          0                 3           2            13    3     1       0.1301587103E-01      39   16    1       0.2634773138E+01      0.1442753278E+02      0.2885631828E+03      0.1301587103E-01

    ------------------------------------------------
       NWT REQUIRED            3 OUTER ITERATIONS 
       AND A TOTAL OF          6 INNER ITERATIONS.
    ------------------------------------------------

 OUTPUT CONTROL FOR STRESS PERIOD    1   TIME STEP   98
    SAVE HEAD FOR ALL LAYERS
    SAVE DRAWDOWN FOR ALL LAYERS
    SAVE BUDGET
    PRINT BUDGET
 UBDSV1 SAVING "         STORAGE" ON UNIT   9 AT TIME STEP 98, STRESS PERIOD   1
 UBDSV2 SAVING "   CONSTANT HEAD" ON UNIT   9 AT TIME STEP 98, STRESS PERIOD   1
 UBDSV1 SAVING "FLOW RIGHT FACE " ON UNIT   9 AT TIME STEP 98, STRESS PERIOD   1
 UBDSV1 SAVING "FLOW FRONT FACE " ON UNIT   9 AT TIME STEP 98, STRESS PERIOD   1
 UBDSV4 SAVING "   RIVER LEAKAGE" ON UNIT   9 AT TIME STEP 98, STRESS PERIOD   1
 UBDSV3 SAVING "        RECHARGE" ON UNIT   9 AT TIME STEP 98, STRESS PERIOD   1

 HEAD WILL BE SAVED ON UNIT 5037 AT END OF TIME STEP   98, STRESS PERIOD    1

 DRAWDOWN WILL BE SAVED ON UNIT   38 AT END OF TIME STEP   98, STRESS PERIOD    1
1
  VOLUMETRIC BUDGET FOR ENTIRE MODEL AT END OF TIME STEP   98, STRESS PERIOD   1
  ------------------------------------------------------------------------------

     CUMULATIVE VOLUMES      L**3       RATES FOR THIS TIME STEP      L**3/T
     ------------------                 ------------------------

           IN:                                      IN:
           ---                                      ---
             STORAGE =     5723557.5000               STORAGE =       36392.8164
       CONSTANT HEAD =           0.0000         CONSTANT HEAD =           0.0000
       RIVER LEAKAGE =      588928.4375         RIVER LEAKAGE =        5420.8945
            RECHARGE =     3102870.5000              RECHARGE =        1160.8306

            TOTAL IN =     9415356.0000              TOTAL IN =       42974.5430

          OUT:                                     OUT:
          ----                                     ----
             STORAGE =     4687444.5000               STORAGE =        7766.3267
       CONSTANT HEAD =           0.0000         CONSTANT HEAD =           0.0000
       RIVER LEAKAGE =     4727264.0000         RIVER LEAKAGE =       35201.0391
            RECHARGE =           0.0000              RECHARGE =           0.0000

           TOTAL OUT =     9414708.0000             TOTAL OUT =       42967.3672

            IN - OUT =         648.0000              IN - OUT =           7.1758

 PERCENT DISCREPANCY =           0.01     PERCENT DISCREPANCY =           0.02






         TIME SUMMARY AT END OF TIME STEP   98 IN STRESS PERIOD    1
                    SECONDS     MINUTES      HOURS       DAYS        YEARS
                    -----------------------------------------------------------
   TIME STEP LENGTH  86400.      1440.0      24.000      1.0000     2.73785E-03
 STRESS PERIOD TIME 8.46720E+06 1.41120E+05  2352.0      98.000     0.26831    
         TOTAL TIME 8.46720E+06 1.41120E+05  2352.0      98.000     0.26831    
1
 
 SOLVING FOR HEAD 
                                                   Max.-Head-Change                        Max.-Flux-Residual
  Residual-Control   Outer-Iter.   Inner-Iter.     Column Row Layer    Max.-Head-Change    Column Row Layer    Max.-Flux-Residual            L2-New               L2-Old           Solver-Max-Delh
          0                 1           2            13    3     1      -0.2610816000E+01      39   16    1      -0.5215045738E+03      0.2867931250E+04      0.1442753278E+02     -0.2610816000E+01
          0                 2           2             7   10     1       0.3032750523E+00       7   10    1       0.7109414745E+02      0.2950684840E+03      0.2867931250E+04      0.3032750523E+00
          0                 3           2             7   10     1      -0.2924303404E-01       7   10    1      -0.8191519736E+01      0.1658676450E+02      0.2950684840E+03     -0.2924303404E-01

    ------------------------------------------------
       NWT REQUIRED            3 OUTER ITERATIONS 
       AND A TOTAL OF          6 INNER ITERATIONS.
    ------------------------------------------------

 OUTPUT CONTROL FOR STRESS PERIOD    1   TIME STEP   99
    SAVE HEAD FOR ALL LAYERS
    SAVE DRAWDOWN FOR ALL LAYERS
    SAVE BUDGET
    PRINT BUDGET
 UBDSV1 SAVING "         STORAGE" ON UNIT   9 AT TIME STEP 99, STRESS PERIOD   1
 UBDSV2 SAVING "   CONSTANT HEAD" ON UNIT   9 AT TIME STEP 99, STRESS PERIOD   1
 UBDSV1 SAVING "FLOW RIGHT FACE " ON UNIT   9 AT TIME STEP 99, STRESS PERIOD   1
 UBDSV1 SAVING "FLOW FRONT FACE " ON UNIT   9 AT TIME STEP 99, STRESS PERIOD   1
 UBDSV4 SAVING "   RIVER LEAKAGE" ON UNIT   9 AT TIME STEP 99, STRESS PERIOD   1
 UBDSV3 SAVING "        RECHARGE" ON UNIT   9 AT TIME STEP 99, STRESS PERIOD   1

 HEAD WILL BE SAVED ON UNIT 5037 AT END OF TIME STEP   99, STRESS PERIOD    1

 DRAWDOWN WILL BE SAVED ON UNIT   38 AT END OF TIME STEP   99, STRESS PERIOD    1
1
  VOLUMETRIC BUDGET FOR ENTIRE MODEL AT END OF TIME STEP   99, STRESS PERIOD   1
  ------------------------------------------------------------------------------

     CUMULATIVE VOLUMES      L**3       RATES FOR THIS TIME STEP      L**3/T
     ------------------                 ------------------------

           IN:                                      IN:
           ---                                      ---
             STORAGE =     5759702.5000               STORAGE =       36144.9844
       CONSTANT HEAD =           0.0000         CONSTANT HEAD =           0.0000
       RIVER LEAKAGE =      594355.8125         RIVER LEAKAGE =        5427.4048
            RECHARGE =     3103966.7500              RECHARGE =        1096.1844

            TOTAL IN =     9458025.0000              TOTAL IN =       42668.5742

          OUT:                                     OUT:
          ----                                     ----
             STORAGE =     4694995.5000               STORAGE =        7551.2402
       CONSTANT HEAD =           0.0000         CONSTANT HEAD =           0.0000
       RIVER LEAKAGE =     4762374.5000         RIVER LEAKAGE =       35110.3750
            RECHARGE =           0.0000              RECHARGE =           0.0000

           TOTAL OUT =     9457370.0000             TOTAL OUT =       42661.6172

            IN - OUT =         655.0000              IN - OUT =           6.9570

 PERCENT DISCREPANCY =           0.01     PERCENT DISCREPANCY =           0.02






         TIME SUMMARY AT END OF TIME STEP   99 IN STRESS PERIOD    1
                    SECONDS     MINUTES      HOURS       DAYS        YEARS
                    -----------------------------------------------------------
   TIME STEP LENGTH  86400.      1440.0      24.000      1.0000     2.73785E-03
 STRESS PERIOD TIME 8.55360E+06 1.42560E+05  2376.0      99.000     0.27105    
         TOTAL TIME 8.55360E+06 1.42560E+05  2376.0      99.000     0.27105    
1
 
 SOLVING FOR HEAD 
                                                   Max.-Head-Change                        Max.-Flux-Residual
  Residual-Control   Outer-Iter.   Inner-Iter.     Column Row Layer    Max.-Head-Change    Column Row Layer    Max.-Flux-Residual            L2-New               L2-Old           Solver-Max-Delh
          0                 1           2            13    3     1      -0.2268902733E+01      39   16    1      -0.5157058374E+03      0.2849933458E+04      0.1658676450E+02     -0.2268902733E+01
          0                 2           2            12    1     1       0.4652919785E+00      39   19    1       0.9125198976E+02      0.3174471211E+03      0.2849933458E+04      0.4652919785E+00
          0                 3           2            12    1     1      -0.4018503618E-01      39   19    1      -0.9122299049E+01      0.2028982942E+02      0.3174471211E+03     -0.4018503618E-01

    ------------------------------------------------
       NWT REQUIRED            3 OUTER ITERATIONS 
       AND A TOTAL OF          6 INNER ITERATIONS.
    ------------------------------------------------

 OUTPUT CONTROL FOR STRESS PERIOD    1   TIME STEP  100
    SAVE HEAD FOR ALL LAYERS
    SAVE DRAWDOWN FOR ALL LAYERS
    SAVE BUDGET
    PRINT BUDGET
 UBDSV1 SAVING "         STORAGE" ON UNIT   9 AT TIME STEP100, STRESS PERIOD   1
 UBDSV2 SAVING "   CONSTANT HEAD" ON UNIT   9 AT TIME STEP100, STRESS PERIOD   1
 UBDSV1 SAVING "FLOW RIGHT FACE " ON UNIT   9 AT TIME STEP100, STRESS PERIOD   1
 UBDSV1 SAVING "FLOW FRONT FACE " ON UNIT   9 AT TIME STEP100, STRESS PERIOD   1
 UBDSV4 SAVING "   RIVER LEAKAGE" ON UNIT   9 AT TIME STEP100, STRESS PERIOD   1
 UBDSV3 SAVING "        RECHARGE" ON UNIT   9 AT TIME STEP100, STRESS PERIOD   1

 HEAD WILL BE SAVED ON UNIT 5037 AT END OF TIME STEP  100, STRESS PERIOD    1

 DRAWDOWN WILL BE SAVED ON UNIT   38 AT END OF TIME STEP  100, STRESS PERIOD    1
1
  VOLUMETRIC BUDGET FOR ENTIRE MODEL AT END OF TIME STEP  100, STRESS PERIOD   1
  ------------------------------------------------------------------------------

     CUMULATIVE VOLUMES      L**3       RATES FOR THIS TIME STEP      L**3/T
     ------------------                 ------------------------

           IN:                                      IN:
           ---                                      ---
             STORAGE =     5795577.0000               STORAGE =       35874.4648
       CONSTANT HEAD =           0.0000         CONSTANT HEAD =           0.0000
       RIVER LEAKAGE =      599789.6875         RIVER LEAKAGE =        5433.8647
            RECHARGE =     3105004.0000              RECHARGE =        1037.1537

            TOTAL IN =     9500370.0000              TOTAL IN =       42345.4805

          OUT:                                     OUT:
          ----                                     ----
             STORAGE =     4702308.5000               STORAGE =        7313.0522
       CONSTANT HEAD =           0.0000         CONSTANT HEAD =           0.0000
       RIVER LEAKAGE =     4797400.5000         RIVER LEAKAGE =       35026.0391
            RECHARGE =           0.0000              RECHARGE =           0.0000

           TOTAL OUT =     9499709.0000             TOTAL OUT =       42339.0898

            IN - OUT =         661.0000              IN - OUT =           6.3906

 PERCENT DISCREPANCY =           0.01     PERCENT DISCREPANCY =           0.02






         TIME SUMMARY AT END OF TIME STEP  100 IN STRESS PERIOD    1
                    SECONDS     MINUTES      HOURS       DAYS        YEARS
                    -----------------------------------------------------------
   TIME STEP LENGTH  86400.      1440.0      24.000      1.0000     2.73785E-03
 STRESS PERIOD TIME 8.64000E+06 1.44000E+05  2400.0      100.00     0.27379    
         TOTAL TIME 8.64000E+06 1.44000E+05  2400.0      100.00     0.27379    
1
 
 SOLVING FOR HEAD 
                                                   Max.-Head-Change                        Max.-Flux-Residual
  Residual-Control   Outer-Iter.   Inner-Iter.     Column Row Layer    Max.-Head-Change    Column Row Layer    Max.-Flux-Residual            L2-New               L2-Old           Solver-Max-Delh
          0                 1           2            13    3     1      -0.1926300454E+01      39   16    1      -0.5100355355E+03      0.2829113243E+04      0.2028982942E+02     -0.1926300454E+01
          0                 2           2            18   14     1       0.4630687500E+00      18   14    1       0.1106497639E+03      0.3033437542E+03      0.2829113243E+04      0.4630687500E+00
          0                 3           2            18   14     1      -0.3999529159E-01      18   14    1      -0.1121716404E+02      0.1826912552E+02      0.3033437542E+03     -0.3999529159E-01

    ------------------------------------------------
       NWT REQUIRED            3 OUTER ITERATIONS 
       AND A TOTAL OF          6 INNER ITERATIONS.
    ------------------------------------------------

 OUTPUT CONTROL FOR STRESS PERIOD    1   TIME STEP  101
    SAVE HEAD FOR ALL LAYERS
    SAVE DRAWDOWN FOR ALL LAYERS
    SAVE BUDGET
    PRINT BUDGET
 UBDSV1 SAVING "         STORAGE" ON UNIT   9 AT TIME STEP101, STRESS PERIOD   1
 UBDSV2 SAVING "   CONSTANT HEAD" ON UNIT   9 AT TIME STEP101, STRESS PERIOD   1
 UBDSV1 SAVING "FLOW RIGHT FACE " ON UNIT   9 AT TIME STEP101, STRESS PERIOD   1
 UBDSV1 SAVING "FLOW FRONT FACE " ON UNIT   9 AT TIME STEP101, STRESS PERIOD   1
 UBDSV4 SAVING "   RIVER LEAKAGE" ON UNIT   9 AT TIME STEP101, STRESS PERIOD   1
 UBDSV3 SAVING "        RECHARGE" ON UNIT   9 AT TIME STEP101, STRESS PERIOD   1

 HEAD WILL BE SAVED ON UNIT 5037 AT END OF TIME STEP  101, STRESS PERIOD    1

 DRAWDOWN WILL BE SAVED ON UNIT   38 AT END OF TIME STEP  101, STRESS PERIOD    1
1
  VOLUMETRIC BUDGET FOR ENTIRE MODEL AT END OF TIME STEP  101, STRESS PERIOD   1
  ------------------------------------------------------------------------------

     CUMULATIVE VOLUMES      L**3       RATES FOR THIS TIME STEP      L**3/T
     ------------------                 ------------------------

           IN:                                      IN:
           ---                                      ---
             STORAGE =     5831179.0000               STORAGE =       35602.0117
       CONSTANT HEAD =           0.0000         CONSTANT HEAD =           0.0000
       RIVER LEAKAGE =      605230.0000         RIVER LEAKAGE =        5440.2925
            RECHARGE =     3105987.0000              RECHARGE =         983.0574

            TOTAL IN =     9542396.0000              TOTAL IN =       42025.3633

          OUT:                                     OUT:
          ----                                     ----
             STORAGE =     4709368.0000               STORAGE =        7059.4717
       CONSTANT HEAD =           0.0000         CONSTANT HEAD =           0.0000
       RIVER LEAKAGE =     4832359.5000         RIVER LEAKAGE =       34959.0234
            RECHARGE =           0.0000              RECHARGE =           0.0000

           TOTAL OUT =     9541728.0000             TOTAL OUT =       42018.4961

            IN - OUT =         668.0000              IN - OUT =           6.8672

 PERCENT DISCREPANCY =           0.01     PERCENT DISCREPANCY =           0.02






         TIME SUMMARY AT END OF TIME STEP  101 IN STRESS PERIOD    1
                    SECONDS     MINUTES      HOURS       DAYS        YEARS
                    -----------------------------------------------------------
   TIME STEP LENGTH  86400.      1440.0      24.000      1.0000     2.73785E-03
 STRESS PERIOD TIME 8.72640E+06 1.45440E+05  2424.0      101.00     0.27652    
         TOTAL TIME 8.72640E+06 1.45440E+05  2424.0      101.00     0.27652    
1
 
 SOLVING FOR HEAD 
                                                   Max.-Head-Change                        Max.-Flux-Residual
  Residual-Control   Outer-Iter.   Inner-Iter.     Column Row Layer    Max.-Head-Change    Column Row Layer    Max.-Flux-Residual            L2-New               L2-Old           Solver-Max-Delh
          0                 1           2            13    3     1      -0.1643426898E+01      39   16    1      -0.5044829283E+03      0.2807140437E+04      0.1826912552E+02     -0.1643426898E+01
          0                 2           2            40   21     1       0.1706188540E+00      39   16    1       0.5040975027E+02      0.2832510424E+03      0.2807140437E+04      0.1706188540E+00
          0                 3           2            40   21     1      -0.1473493411E-01      40   21    1      -0.4157693817E+01      0.1460225397E+02      0.2832510424E+03     -0.1473493411E-01

    ------------------------------------------------
       NWT REQUIRED            3 OUTER ITERATIONS 
       AND A TOTAL OF          6 INNER ITERATIONS.
    ------------------------------------------------

 OUTPUT CONTROL FOR STRESS PERIOD    1   TIME STEP  102
    SAVE HEAD FOR ALL LAYERS
    SAVE DRAWDOWN FOR ALL LAYERS
    SAVE BUDGET
    PRINT BUDGET
 UBDSV1 SAVING "         STORAGE" ON UNIT   9 AT TIME STEP102, STRESS PERIOD   1
 UBDSV2 SAVING "   CONSTANT HEAD" ON UNIT   9 AT TIME STEP102, STRESS PERIOD   1
 UBDSV1 SAVING "FLOW RIGHT FACE " ON UNIT   9 AT TIME STEP102, STRESS PERIOD   1
 UBDSV1 SAVING "FLOW FRONT FACE " ON UNIT   9 AT TIME STEP102, STRESS PERIOD   1
 UBDSV4 SAVING "   RIVER LEAKAGE" ON UNIT   9 AT TIME STEP102, STRESS PERIOD   1
 UBDSV3 SAVING "        RECHARGE" ON UNIT   9 AT TIME STEP102, STRESS PERIOD   1

 HEAD WILL BE SAVED ON UNIT 5037 AT END OF TIME STEP  102, STRESS PERIOD    1

 DRAWDOWN WILL BE SAVED ON UNIT   38 AT END OF TIME STEP  102, STRESS PERIOD    1
1
  VOLUMETRIC BUDGET FOR ENTIRE MODEL AT END OF TIME STEP  102, STRESS PERIOD   1
  ------------------------------------------------------------------------------

     CUMULATIVE VOLUMES      L**3       RATES FOR THIS TIME STEP      L**3/T
     ------------------                 ------------------------

           IN:                                      IN:
           ---                                      ---
             STORAGE =     5866546.0000               STORAGE =       35367.0234
       CONSTANT HEAD =           0.0000         CONSTANT HEAD =           0.0000
       RIVER LEAKAGE =      610676.6875         RIVER LEAKAGE =        5446.6729
            RECHARGE =     3106920.2500              RECHARGE =         933.3230

            TOTAL IN =     9584143.0000              TOTAL IN =       41747.0195

          OUT:                                     OUT:
          ----                                     ----
             STORAGE =     4716210.0000               STORAGE =        6842.0820
       CONSTANT HEAD =           0.0000         CONSTANT HEAD =           0.0000
       RIVER LEAKAGE =     4867257.5000         RIVER LEAKAGE =       34897.9180
            RECHARGE =           0.0000              RECHARGE =           0.0000

           TOTAL OUT =     9583468.0000             TOTAL OUT =       41740.0000

            IN - OUT =         675.0000              IN - OUT =           7.0195

 PERCENT DISCREPANCY =           0.01     PERCENT DISCREPANCY =           0.02






         TIME SUMMARY AT END OF TIME STEP  102 IN STRESS PERIOD    1
                    SECONDS     MINUTES      HOURS       DAYS        YEARS
                    -----------------------------------------------------------
   TIME STEP LENGTH  86400.      1440.0      24.000      1.0000     2.73785E-03
 STRESS PERIOD TIME 8.81280E+06 1.46880E+05  2448.0      102.00     0.27926    
         TOTAL TIME 8.81280E+06 1.46880E+05  2448.0      102.00     0.27926    
1
 
 SOLVING FOR HEAD 
                                                   Max.-Head-Change                        Max.-Flux-Residual
  Residual-Control   Outer-Iter.   Inner-Iter.     Column Row Layer    Max.-Head-Change    Column Row Layer    Max.-Flux-Residual            L2-New               L2-Old           Solver-Max-Delh
          0                 1           2            13    3     1      -0.1399652290E+01      39   16    1      -0.4990431368E+03      0.2788759025E+04      0.1460225397E+02     -0.1399652290E+01
          0                 2           2            13    3     1       0.1208765321E+00      39   16    1       0.4986658372E+02      0.2788009215E+03      0.2788759025E+04      0.1208765321E+00
          0                 3           2            13    3     1       0.6043861654E-02      39   16    1       0.2493046849E+01      0.1393943398E+02      0.2788009215E+03      0.6043861654E-02

    ------------------------------------------------
       NWT REQUIRED            3 OUTER ITERATIONS 
       AND A TOTAL OF          6 INNER ITERATIONS.
    ------------------------------------------------

 OUTPUT CONTROL FOR STRESS PERIOD    1   TIME STEP  103
    SAVE HEAD FOR ALL LAYERS
    SAVE DRAWDOWN FOR ALL LAYERS
    SAVE BUDGET
    PRINT BUDGET
 UBDSV1 SAVING "         STORAGE" ON UNIT   9 AT TIME STEP103, STRESS PERIOD   1
 UBDSV2 SAVING "   CONSTANT HEAD" ON UNIT   9 AT TIME STEP103, STRESS PERIOD   1
 UBDSV1 SAVING "FLOW RIGHT FACE " ON UNIT   9 AT TIME STEP103, STRESS PERIOD   1
 UBDSV1 SAVING "FLOW FRONT FACE " ON UNIT   9 AT TIME STEP103, STRESS PERIOD   1
 UBDSV4 SAVING "   RIVER LEAKAGE" ON UNIT   9 AT TIME STEP103, STRESS PERIOD   1
 UBDSV3 SAVING "        RECHARGE" ON UNIT   9 AT TIME STEP103, STRESS PERIOD   1

 HEAD WILL BE SAVED ON UNIT 5037 AT END OF TIME STEP  103, STRESS PERIOD    1

 DRAWDOWN WILL BE SAVED ON UNIT   38 AT END OF TIME STEP  103, STRESS PERIOD    1
1
  VOLUMETRIC BUDGET FOR ENTIRE MODEL AT END OF TIME STEP  103, STRESS PERIOD   1
  ------------------------------------------------------------------------------

     CUMULATIVE VOLUMES      L**3       RATES FOR THIS TIME STEP      L**3/T
     ------------------                 ------------------------

           IN:                                      IN:
           ---                                      ---
             STORAGE =     5901705.5000               STORAGE =       35159.4688
       CONSTANT HEAD =           0.0000         CONSTANT HEAD =           0.0000
       RIVER LEAKAGE =      616129.6875         RIVER LEAKAGE =        5453.0249
            RECHARGE =     3107807.7500              RECHARGE =         887.4645

            TOTAL IN =     9625643.0000              TOTAL IN =       41499.9570

          OUT:                                     OUT:
          ----                                     ----
             STORAGE =     4722869.0000               STORAGE =        6659.0640
       CONSTANT HEAD =           0.0000         CONSTANT HEAD =           0.0000
       RIVER LEAKAGE =     4902091.5000         RIVER LEAKAGE =       34833.7578
            RECHARGE =           0.0000              RECHARGE =           0.0000

           TOTAL OUT =     9624960.0000             TOTAL OUT =       41492.8203

            IN - OUT =         683.0000              IN - OUT =           7.1367

 PERCENT DISCREPANCY =           0.01     PERCENT DISCREPANCY =           0.02






         TIME SUMMARY AT END OF TIME STEP  103 IN STRESS PERIOD    1
                    SECONDS     MINUTES      HOURS       DAYS        YEARS
                    -----------------------------------------------------------
   TIME STEP LENGTH  86400.      1440.0      24.000      1.0000     2.73785E-03
 STRESS PERIOD TIME 8.89920E+06 1.48320E+05  2472.0      103.00     0.28200    
         TOTAL TIME 8.89920E+06 1.48320E+05  2472.0      103.00     0.28200    
1
 
 SOLVING FOR HEAD 
                                                   Max.-Head-Change                        Max.-Flux-Residual
  Residual-Control   Outer-Iter.   Inner-Iter.     Column Row Layer    Max.-Head-Change    Column Row Layer    Max.-Flux-Residual            L2-New               L2-Old           Solver-Max-Delh
          0                 1           2            13    3     1      -0.1190985869E+01      39   16    1      -0.4937122007E+03      0.2772164738E+04      0.1393943398E+02     -0.1190985869E+01
          0                 2           2            13    3     1       0.1028558855E+00      39   16    1       0.4933428122E+02      0.2771276003E+03      0.2772164738E+04      0.1028558855E+00
          0                 3           2            13    3     1       0.5142825783E-02      39   16    1       0.2466437627E+01      0.1385577562E+02      0.2771276003E+03      0.5142825783E-02

    ------------------------------------------------
       NWT REQUIRED            3 OUTER ITERATIONS 
       AND A TOTAL OF          6 INNER ITERATIONS.
    ------------------------------------------------

 OUTPUT CONTROL FOR STRESS PERIOD    1   TIME STEP  104
    SAVE HEAD FOR ALL LAYERS
    SAVE DRAWDOWN FOR ALL LAYERS
    SAVE BUDGET
    PRINT BUDGET
 UBDSV1 SAVING "         STORAGE" ON UNIT   9 AT TIME STEP104, STRESS PERIOD   1
 UBDSV2 SAVING "   CONSTANT HEAD" ON UNIT   9 AT TIME STEP104, STRESS PERIOD   1
 UBDSV1 SAVING "FLOW RIGHT FACE " ON UNIT   9 AT TIME STEP104, STRESS PERIOD   1
 UBDSV1 SAVING "FLOW FRONT FACE " ON UNIT   9 AT TIME STEP104, STRESS PERIOD   1
 UBDSV4 SAVING "   RIVER LEAKAGE" ON UNIT   9 AT TIME STEP104, STRESS PERIOD   1
 UBDSV3 SAVING "        RECHARGE" ON UNIT   9 AT TIME STEP104, STRESS PERIOD   1

 HEAD WILL BE SAVED ON UNIT 5037 AT END OF TIME STEP  104, STRESS PERIOD    1

 DRAWDOWN WILL BE SAVED ON UNIT   38 AT END OF TIME STEP  104, STRESS PERIOD    1
1
  VOLUMETRIC BUDGET FOR ENTIRE MODEL AT END OF TIME STEP  104, STRESS PERIOD   1
  ------------------------------------------------------------------------------

     CUMULATIVE VOLUMES      L**3       RATES FOR THIS TIME STEP      L**3/T
     ------------------                 ------------------------

           IN:                                      IN:
           ---                                      ---
             STORAGE =     5936673.0000               STORAGE =       34967.4180
       CONSTANT HEAD =           0.0000         CONSTANT HEAD =           0.0000
       RIVER LEAKAGE =      621589.0000         RIVER LEAKAGE =        5459.3276
            RECHARGE =     3108652.7500              RECHARGE =         845.0667

            TOTAL IN =     9666915.0000              TOTAL IN =       41271.8125

          OUT:                                     OUT:
          ----                                     ----
             STORAGE =     4729366.5000               STORAGE =        6497.3911
       CONSTANT HEAD =           0.0000         CONSTANT HEAD =           0.0000
       RIVER LEAKAGE =     4936859.0000         RIVER LEAKAGE =       34767.2891
            RECHARGE =           0.0000              RECHARGE =           0.0000

           TOTAL OUT =     9666226.0000             TOTAL OUT =       41264.6797

            IN - OUT =         689.0000              IN - OUT =           7.1328

 PERCENT DISCREPANCY =           0.01     PERCENT DISCREPANCY =           0.02






         TIME SUMMARY AT END OF TIME STEP  104 IN STRESS PERIOD    1
                    SECONDS     MINUTES      HOURS       DAYS        YEARS
                    -----------------------------------------------------------
   TIME STEP LENGTH  86400.      1440.0      24.000      1.0000     2.73785E-03
 STRESS PERIOD TIME 8.98560E+06 1.49760E+05  2496.0      104.00     0.28474    
         TOTAL TIME 8.98560E+06 1.49760E+05  2496.0      104.00     0.28474    
1
 
 SOLVING FOR HEAD 
                                                   Max.-Head-Change                        Max.-Flux-Residual
  Residual-Control   Outer-Iter.   Inner-Iter.     Column Row Layer    Max.-Head-Change    Column Row Layer    Max.-Flux-Residual            L2-New               L2-Old           Solver-Max-Delh
          0                 1           2            14    4     1      -0.1015702321E+01      39   16    1      -0.4884835255E+03      0.2757008732E+04      0.1385577562E+02     -0.1015702321E+01
          0                 2           2            13    1     1       0.1508839929E+01      13    1    1       0.1413075932E+03      0.3109149881E+03      0.2757008732E+04      0.1508839929E+01
          0                 3           2            13    1     1      -0.1303380362E+00      13    1    1      -0.1414071132E+02      0.2029168452E+02      0.3109149881E+03     -0.1303380362E+00
          0                 4           2            13    1     1      -0.6516821921E-02      13    1    1      -0.7070209469E+00      0.1014475712E+01      0.2029168452E+02     -0.6516821921E-02

    ------------------------------------------------
       NWT REQUIRED            4 OUTER ITERATIONS 
       AND A TOTAL OF          8 INNER ITERATIONS.
    ------------------------------------------------

 OUTPUT CONTROL FOR STRESS PERIOD    1   TIME STEP  105
    SAVE HEAD FOR ALL LAYERS
    SAVE DRAWDOWN FOR ALL LAYERS
    SAVE BUDGET
    PRINT BUDGET
 UBDSV1 SAVING "         STORAGE" ON UNIT   9 AT TIME STEP105, STRESS PERIOD   1
 UBDSV2 SAVING "   CONSTANT HEAD" ON UNIT   9 AT TIME STEP105, STRESS PERIOD   1
 UBDSV1 SAVING "FLOW RIGHT FACE " ON UNIT   9 AT TIME STEP105, STRESS PERIOD   1
 UBDSV1 SAVING "FLOW FRONT FACE " ON UNIT   9 AT TIME STEP105, STRESS PERIOD   1
 UBDSV4 SAVING "   RIVER LEAKAGE" ON UNIT   9 AT TIME STEP105, STRESS PERIOD   1
 UBDSV3 SAVING "        RECHARGE" ON UNIT   9 AT TIME STEP105, STRESS PERIOD   1

 HEAD WILL BE SAVED ON UNIT 5037 AT END OF TIME STEP  105, STRESS PERIOD    1

 DRAWDOWN WILL BE SAVED ON UNIT   38 AT END OF TIME STEP  105, STRESS PERIOD    1
1
  VOLUMETRIC BUDGET FOR ENTIRE MODEL AT END OF TIME STEP  105, STRESS PERIOD   1
  ------------------------------------------------------------------------------

     CUMULATIVE VOLUMES      L**3       RATES FOR THIS TIME STEP      L**3/T
     ------------------                 ------------------------

           IN:                                      IN:
           ---                                      ---
             STORAGE =     5971422.5000               STORAGE =       34749.3984
       CONSTANT HEAD =           0.0000         CONSTANT HEAD =           0.0000
       RIVER LEAKAGE =      627054.6250         RIVER LEAKAGE =        5465.6001
            RECHARGE =     3109458.5000              RECHARGE =         805.7725

            TOTAL IN =     9707936.0000              TOTAL IN =       41020.7734

          OUT:                                     OUT:
          ----                                     ----
             STORAGE =     4735685.5000               STORAGE =        6319.2036
       CONSTANT HEAD =           0.0000         CONSTANT HEAD =           0.0000
       RIVER LEAKAGE =     4971560.0000         RIVER LEAKAGE =       34701.2383
            RECHARGE =           0.0000              RECHARGE =           0.0000

           TOTAL OUT =     9707246.0000             TOTAL OUT =       41020.4414

            IN - OUT =         690.0000              IN - OUT =           0.3320

 PERCENT DISCREPANCY =           0.01     PERCENT DISCREPANCY =           0.00






         TIME SUMMARY AT END OF TIME STEP  105 IN STRESS PERIOD    1
                    SECONDS     MINUTES      HOURS       DAYS        YEARS
                    -----------------------------------------------------------
   TIME STEP LENGTH  86400.      1440.0      24.000      1.0000     2.73785E-03
 STRESS PERIOD TIME 9.07200E+06 1.51200E+05  2520.0      105.00     0.28747    
         TOTAL TIME 9.07200E+06 1.51200E+05  2520.0      105.00     0.28747    
1
 
 SOLVING FOR HEAD 
                                                   Max.-Head-Change                        Max.-Flux-Residual
  Residual-Control   Outer-Iter.   Inner-Iter.     Column Row Layer    Max.-Head-Change    Column Row Layer    Max.-Flux-Residual            L2-New               L2-Old           Solver-Max-Delh
          0                 1           2            13    1     1       0.1406816726E+01      39   16    1      -0.4833776910E+03      0.2739889234E+04      0.1014475712E+01      0.1406816726E+01
          0                 2           2            14    3     1       0.1517422515E+00      39   16    1       0.4830234724E+02      0.2740652143E+03      0.2739889234E+04      0.1517422515E+00
          0                 3           2            14    3     1       0.7588269366E-02      39   16    1       0.2414852249E+01      0.1370267044E+02      0.2740652143E+03      0.7588269366E-02

    ------------------------------------------------
       NWT REQUIRED            3 OUTER ITERATIONS 
       AND A TOTAL OF          6 INNER ITERATIONS.
    ------------------------------------------------

 OUTPUT CONTROL FOR STRESS PERIOD    1   TIME STEP  106
    SAVE HEAD FOR ALL LAYERS
    SAVE DRAWDOWN FOR ALL LAYERS
    SAVE BUDGET
    PRINT BUDGET
 UBDSV1 SAVING "         STORAGE" ON UNIT   9 AT TIME STEP106, STRESS PERIOD   1
 UBDSV2 SAVING "   CONSTANT HEAD" ON UNIT   9 AT TIME STEP106, STRESS PERIOD   1
 UBDSV1 SAVING "FLOW RIGHT FACE " ON UNIT   9 AT TIME STEP106, STRESS PERIOD   1
 UBDSV1 SAVING "FLOW FRONT FACE " ON UNIT   9 AT TIME STEP106, STRESS PERIOD   1
 UBDSV4 SAVING "   RIVER LEAKAGE" ON UNIT   9 AT TIME STEP106, STRESS PERIOD   1
 UBDSV3 SAVING "        RECHARGE" ON UNIT   9 AT TIME STEP106, STRESS PERIOD   1

 HEAD WILL BE SAVED ON UNIT 5037 AT END OF TIME STEP  106, STRESS PERIOD    1

 DRAWDOWN WILL BE SAVED ON UNIT   38 AT END OF TIME STEP  106, STRESS PERIOD    1
1
  VOLUMETRIC BUDGET FOR ENTIRE MODEL AT END OF TIME STEP  106, STRESS PERIOD   1
  ------------------------------------------------------------------------------

     CUMULATIVE VOLUMES      L**3       RATES FOR THIS TIME STEP      L**3/T
     ------------------                 ------------------------

           IN:                                      IN:
           ---                                      ---
             STORAGE =     6005956.0000               STORAGE =       34533.7344
       CONSTANT HEAD =           0.0000         CONSTANT HEAD =           0.0000
       RIVER LEAKAGE =      632526.4375         RIVER LEAKAGE =        5471.8008
            RECHARGE =     3110227.7500              RECHARGE =         769.2728

            TOTAL IN =     9748710.0000              TOTAL IN =       40774.8086

          OUT:                                     OUT:
          ----                                     ----
             STORAGE =     4741817.0000               STORAGE =        6131.6860
       CONSTANT HEAD =           0.0000         CONSTANT HEAD =           0.0000
       RIVER LEAKAGE =     5006196.0000         RIVER LEAKAGE =       34636.0078
            RECHARGE =           0.0000              RECHARGE =           0.0000

           TOTAL OUT =     9748013.0000             TOTAL OUT =       40767.6953

            IN - OUT =         697.0000              IN - OUT =           7.1133

 PERCENT DISCREPANCY =           0.01     PERCENT DISCREPANCY =           0.02






         TIME SUMMARY AT END OF TIME STEP  106 IN STRESS PERIOD    1
                    SECONDS     MINUTES      HOURS       DAYS        YEARS
                    -----------------------------------------------------------
   TIME STEP LENGTH  86400.      1440.0      24.000      1.0000     2.73785E-03
 STRESS PERIOD TIME 9.15840E+06 1.52640E+05  2544.0      106.00     0.29021    
         TOTAL TIME 9.15840E+06 1.52640E+05  2544.0      106.00     0.29021    
1
 
 SOLVING FOR HEAD 
                                                   Max.-Head-Change                        Max.-Flux-Residual
  Residual-Control   Outer-Iter.   Inner-Iter.     Column Row Layer    Max.-Head-Change    Column Row Layer    Max.-Flux-Residual            L2-New               L2-Old           Solver-Max-Delh
          0                 1           2            13    1     1       0.1055957632E+01      39   16    1      -0.4783485079E+03      0.2721914715E+04      0.1370267044E+02      0.1055957632E+01
          0                 2           2             6   10     1       0.3771919860E+00       6   10    1       0.9047499213E+02      0.2864799394E+03      0.2721914715E+04      0.3771919860E+00
          0                 3           2             6   10     1      -0.3262284033E-01       6   10    1      -0.9070115334E+01      0.1639090994E+02      0.2864799394E+03     -0.3262284033E-01

    ------------------------------------------------
       NWT REQUIRED            3 OUTER ITERATIONS 
       AND A TOTAL OF          6 INNER ITERATIONS.
    ------------------------------------------------

 OUTPUT CONTROL FOR STRESS PERIOD    1   TIME STEP  107
    SAVE HEAD FOR ALL LAYERS
    SAVE DRAWDOWN FOR ALL LAYERS
    SAVE BUDGET
    PRINT BUDGET
 UBDSV1 SAVING "         STORAGE" ON UNIT   9 AT TIME STEP107, STRESS PERIOD   1
 UBDSV2 SAVING "   CONSTANT HEAD" ON UNIT   9 AT TIME STEP107, STRESS PERIOD   1
 UBDSV1 SAVING "FLOW RIGHT FACE " ON UNIT   9 AT TIME STEP107, STRESS PERIOD   1
 UBDSV1 SAVING "FLOW FRONT FACE " ON UNIT   9 AT TIME STEP107, STRESS PERIOD   1
 UBDSV4 SAVING "   RIVER LEAKAGE" ON UNIT   9 AT TIME STEP107, STRESS PERIOD   1
 UBDSV3 SAVING "        RECHARGE" ON UNIT   9 AT TIME STEP107, STRESS PERIOD   1

 HEAD WILL BE SAVED ON UNIT 5037 AT END OF TIME STEP  107, STRESS PERIOD    1

 DRAWDOWN WILL BE SAVED ON UNIT   38 AT END OF TIME STEP  107, STRESS PERIOD    1
1
  VOLUMETRIC BUDGET FOR ENTIRE MODEL AT END OF TIME STEP  107, STRESS PERIOD   1
  ------------------------------------------------------------------------------

     CUMULATIVE VOLUMES      L**3       RATES FOR THIS TIME STEP      L**3/T
     ------------------                 ------------------------

           IN:                                      IN:
           ---                                      ---
             STORAGE =     6040291.5000               STORAGE =       34335.6836
       CONSTANT HEAD =           0.0000         CONSTANT HEAD =           0.0000
       RIVER LEAKAGE =      638004.4375         RIVER LEAKAGE =        5478.0005
            RECHARGE =     3110963.0000              RECHARGE =         735.2989

            TOTAL IN =     9789259.0000              TOTAL IN =       40548.9844

          OUT:                                     OUT:
          ----                                     ----
             STORAGE =     4747788.5000               STORAGE =        5971.5405
       CONSTANT HEAD =           0.0000         CONSTANT HEAD =           0.0000
       RIVER LEAKAGE =     5040766.5000         RIVER LEAKAGE =       34570.6523
            RECHARGE =           0.0000              RECHARGE =           0.0000

           TOTAL OUT =     9788555.0000             TOTAL OUT =       40542.1914

            IN - OUT =         704.0000              IN - OUT =           6.7930

 PERCENT DISCREPANCY =           0.01     PERCENT DISCREPANCY =           0.02






         TIME SUMMARY AT END OF TIME STEP  107 IN STRESS PERIOD    1
                    SECONDS     MINUTES      HOURS       DAYS        YEARS
                    -----------------------------------------------------------
   TIME STEP LENGTH  86400.      1440.0      24.000      1.0000     2.73785E-03
 STRESS PERIOD TIME 9.24480E+06 1.54080E+05  2568.0      107.00     0.29295    
         TOTAL TIME 9.24480E+06 1.54080E+05  2568.0      107.00     0.29295    
1
 
 SOLVING FOR HEAD 
                                                   Max.-Head-Change                        Max.-Flux-Residual
  Residual-Control   Outer-Iter.   Inner-Iter.     Column Row Layer    Max.-Head-Change    Column Row Layer    Max.-Flux-Residual            L2-New               L2-Old           Solver-Max-Delh
          0                 1           2            13    1     1       0.7991066575E+00      39   16    1      -0.4734078511E+03      0.2704797684E+04      0.1639090994E+02      0.7991066575E+00
          0                 2           2            13    1     1      -0.6901474007E-01      39   16    1       0.4730680393E+02      0.2703952132E+03      0.2704797684E+04     -0.6901474007E-01
          0                 3           2            17    4     1       0.1705333531E-01      17    4    1       0.2099990596E+03      0.2104339248E+03      0.2703952132E+03      0.1705333531E-01

    ------------------------------------------------
       NWT REQUIRED            3 OUTER ITERATIONS 
       AND A TOTAL OF          6 INNER ITERATIONS.
    ------------------------------------------------

 OUTPUT CONTROL FOR STRESS PERIOD    1   TIME STEP  108
    SAVE HEAD FOR ALL LAYERS
    SAVE DRAWDOWN FOR ALL LAYERS
    SAVE BUDGET
    PRINT BUDGET
 UBDSV1 SAVING "         STORAGE" ON UNIT   9 AT TIME STEP108, STRESS PERIOD   1
 UBDSV2 SAVING "   CONSTANT HEAD" ON UNIT   9 AT TIME STEP108, STRESS PERIOD   1
 UBDSV1 SAVING "FLOW RIGHT FACE " ON UNIT   9 AT TIME STEP108, STRESS PERIOD   1
 UBDSV1 SAVING "FLOW FRONT FACE " ON UNIT   9 AT TIME STEP108, STRESS PERIOD   1
 UBDSV4 SAVING "   RIVER LEAKAGE" ON UNIT   9 AT TIME STEP108, STRESS PERIOD   1
 UBDSV3 SAVING "        RECHARGE" ON UNIT   9 AT TIME STEP108, STRESS PERIOD   1

 HEAD WILL BE SAVED ON UNIT 5037 AT END OF TIME STEP  108, STRESS PERIOD    1

 DRAWDOWN WILL BE SAVED ON UNIT   38 AT END OF TIME STEP  108, STRESS PERIOD    1
1
  VOLUMETRIC BUDGET FOR ENTIRE MODEL AT END OF TIME STEP  108, STRESS PERIOD   1
  ------------------------------------------------------------------------------

     CUMULATIVE VOLUMES      L**3       RATES FOR THIS TIME STEP      L**3/T
     ------------------                 ------------------------

           IN:                                      IN:
           ---                                      ---
             STORAGE =     6074452.0000               STORAGE =       34160.3594
       CONSTANT HEAD =           0.0000         CONSTANT HEAD =           0.0000
       RIVER LEAKAGE =      643488.5625         RIVER LEAKAGE =        5484.1509
            RECHARGE =     3111666.5000              RECHARGE =         703.6158

            TOTAL IN =     9829607.0000              TOTAL IN =       40348.1289

          OUT:                                     OUT:
          ----                                     ----
             STORAGE =     4753587.0000               STORAGE =        5798.3296
       CONSTANT HEAD =           0.0000         CONSTANT HEAD =           0.0000
       RIVER LEAKAGE =     5075272.0000         RIVER LEAKAGE =       34505.5664
            RECHARGE =           0.0000              RECHARGE =           0.0000

           TOTAL OUT =     9828859.0000             TOTAL OUT =       40303.8945

            IN - OUT =         748.0000              IN - OUT =          44.2344

 PERCENT DISCREPANCY =           0.01     PERCENT DISCREPANCY =           0.11






         TIME SUMMARY AT END OF TIME STEP  108 IN STRESS PERIOD    1
                    SECONDS     MINUTES      HOURS       DAYS        YEARS
                    -----------------------------------------------------------
   TIME STEP LENGTH  86400.      1440.0      24.000      1.0000     2.73785E-03
 STRESS PERIOD TIME 9.33120E+06 1.55520E+05  2592.0      108.00     0.29569    
         TOTAL TIME 9.33120E+06 1.55520E+05  2592.0      108.00     0.29569    
1
 
 SOLVING FOR HEAD 
                                                   Max.-Head-Change                        Max.-Flux-Residual
  Residual-Control   Outer-Iter.   Inner-Iter.     Column Row Layer    Max.-Head-Change    Column Row Layer    Max.-Flux-Residual            L2-New               L2-Old           Solver-Max-Delh
          0                 1           2            13    1     1       0.6123154926E+00      39   16    1      -0.4685812485E+03      0.2689204336E+04      0.3728053923E+02      0.6123154926E+00
          0                 2           2            22   18     1       0.2449661247E+00      22   18    1       0.8816105366E+02      0.2898038936E+03      0.2689204336E+04      0.2449661247E+00
          0                 3           2            22   18     1      -0.2115616279E-01      22   18    1      -0.8816105498E+01      0.1741082250E+02      0.2898038936E+03     -0.2115616279E-01

    ------------------------------------------------
       NWT REQUIRED            3 OUTER ITERATIONS 
       AND A TOTAL OF          6 INNER ITERATIONS.
    ------------------------------------------------

 OUTPUT CONTROL FOR STRESS PERIOD    1   TIME STEP  109
    SAVE HEAD FOR ALL LAYERS
    SAVE DRAWDOWN FOR ALL LAYERS
    SAVE BUDGET
    PRINT BUDGET
 UBDSV1 SAVING "         STORAGE" ON UNIT   9 AT TIME STEP109, STRESS PERIOD   1
 UBDSV2 SAVING "   CONSTANT HEAD" ON UNIT   9 AT TIME STEP109, STRESS PERIOD   1
 UBDSV1 SAVING "FLOW RIGHT FACE " ON UNIT   9 AT TIME STEP109, STRESS PERIOD   1
 UBDSV1 SAVING "FLOW FRONT FACE " ON UNIT   9 AT TIME STEP109, STRESS PERIOD   1
 UBDSV4 SAVING "   RIVER LEAKAGE" ON UNIT   9 AT TIME STEP109, STRESS PERIOD   1
 UBDSV3 SAVING "        RECHARGE" ON UNIT   9 AT TIME STEP109, STRESS PERIOD   1

 HEAD WILL BE SAVED ON UNIT 5037 AT END OF TIME STEP  109, STRESS PERIOD    1

 DRAWDOWN WILL BE SAVED ON UNIT   38 AT END OF TIME STEP  109, STRESS PERIOD    1
1
  VOLUMETRIC BUDGET FOR ENTIRE MODEL AT END OF TIME STEP  109, STRESS PERIOD   1
  ------------------------------------------------------------------------------

     CUMULATIVE VOLUMES      L**3       RATES FOR THIS TIME STEP      L**3/T
     ------------------                 ------------------------

           IN:                                      IN:
           ---                                      ---
             STORAGE =     6108431.5000               STORAGE =       33979.6914
       CONSTANT HEAD =           0.0000         CONSTANT HEAD =           0.0000
       RIVER LEAKAGE =      648978.8125         RIVER LEAKAGE =        5490.2314
            RECHARGE =     3112340.5000              RECHARGE =         674.0169

            TOTAL IN =     9869751.0000              TOTAL IN =       40143.9375

          OUT:                                     OUT:
          ----                                     ----
             STORAGE =     4759283.5000               STORAGE =        5696.3584
       CONSTANT HEAD =           0.0000         CONSTANT HEAD =           0.0000
       RIVER LEAKAGE =     5109713.0000         RIVER LEAKAGE =       34441.1250
            RECHARGE =           0.0000              RECHARGE =           0.0000

           TOTAL OUT =     9868996.0000             TOTAL OUT =       40137.4844

            IN - OUT =         755.0000              IN - OUT =           6.4531

 PERCENT DISCREPANCY =           0.01     PERCENT DISCREPANCY =           0.02






         TIME SUMMARY AT END OF TIME STEP  109 IN STRESS PERIOD    1
                    SECONDS     MINUTES      HOURS       DAYS        YEARS
                    -----------------------------------------------------------
   TIME STEP LENGTH  86400.      1440.0      24.000      1.0000     2.73785E-03
 STRESS PERIOD TIME 9.41760E+06 1.56960E+05  2616.0      109.00     0.29843    
         TOTAL TIME 9.41760E+06 1.56960E+05  2616.0      109.00     0.29843    
1
 
 SOLVING FOR HEAD 
                                                   Max.-Head-Change                        Max.-Flux-Residual
  Residual-Control   Outer-Iter.   Inner-Iter.     Column Row Layer    Max.-Head-Change    Column Row Layer    Max.-Flux-Residual            L2-New               L2-Old           Solver-Max-Delh
          0                 1           2            22   18     1       0.5319073794E+00      39   16    1      -0.4638188822E+03      0.2672021858E+04      0.1741082250E+02      0.5319073794E+00
          0                 2           2            17    4     1       0.2214881523E+00      39   16    1       0.4634926987E+02      0.2695928498E+03      0.2672021858E+04      0.2214881523E+00
          0                 3           2            17    4     1      -0.1913196084E-01      39   21    1      -0.3312673025E+01      0.1392578324E+02      0.2695928498E+03     -0.1913196084E-01

    ------------------------------------------------
       NWT REQUIRED            3 OUTER ITERATIONS 
       AND A TOTAL OF          6 INNER ITERATIONS.
    ------------------------------------------------

 OUTPUT CONTROL FOR STRESS PERIOD    1   TIME STEP  110
    SAVE HEAD FOR ALL LAYERS
    SAVE DRAWDOWN FOR ALL LAYERS
    SAVE BUDGET
    PRINT BUDGET
 UBDSV1 SAVING "         STORAGE" ON UNIT   9 AT TIME STEP110, STRESS PERIOD   1
 UBDSV2 SAVING "   CONSTANT HEAD" ON UNIT   9 AT TIME STEP110, STRESS PERIOD   1
 UBDSV1 SAVING "FLOW RIGHT FACE " ON UNIT   9 AT TIME STEP110, STRESS PERIOD   1
 UBDSV1 SAVING "FLOW FRONT FACE " ON UNIT   9 AT TIME STEP110, STRESS PERIOD   1
 UBDSV4 SAVING "   RIVER LEAKAGE" ON UNIT   9 AT TIME STEP110, STRESS PERIOD   1
 UBDSV3 SAVING "        RECHARGE" ON UNIT   9 AT TIME STEP110, STRESS PERIOD   1

 HEAD WILL BE SAVED ON UNIT 5037 AT END OF TIME STEP  110, STRESS PERIOD    1

 DRAWDOWN WILL BE SAVED ON UNIT   38 AT END OF TIME STEP  110, STRESS PERIOD    1
1
  VOLUMETRIC BUDGET FOR ENTIRE MODEL AT END OF TIME STEP  110, STRESS PERIOD   1
  ------------------------------------------------------------------------------

     CUMULATIVE VOLUMES      L**3       RATES FOR THIS TIME STEP      L**3/T
     ------------------                 ------------------------

           IN:                                      IN:
           ---                                      ---
             STORAGE =     6142217.0000               STORAGE =       33785.6484
       CONSTANT HEAD =           0.0000         CONSTANT HEAD =           0.0000
       RIVER LEAKAGE =      654475.1250         RIVER LEAKAGE =        5496.3081
            RECHARGE =     3112986.7500              RECHARGE =         646.3199

            TOTAL IN =     9909679.0000              TOTAL IN =       39928.2773

          OUT:                                     OUT:
          ----                                     ----
             STORAGE =     4764826.5000               STORAGE =        5543.2285
       CONSTANT HEAD =           0.0000         CONSTANT HEAD =           0.0000
       RIVER LEAKAGE =     5144091.0000         RIVER LEAKAGE =       34378.0938
            RECHARGE =           0.0000              RECHARGE =           0.0000

           TOTAL OUT =     9908918.0000             TOTAL OUT =       39921.3203

            IN - OUT =         761.0000              IN - OUT =           6.9570

 PERCENT DISCREPANCY =           0.01     PERCENT DISCREPANCY =           0.02






         TIME SUMMARY AT END OF TIME STEP  110 IN STRESS PERIOD    1
                    SECONDS     MINUTES      HOURS       DAYS        YEARS
                    -----------------------------------------------------------
   TIME STEP LENGTH  86400.      1440.0      24.000      1.0000     2.73785E-03
 STRESS PERIOD TIME 9.50400E+06 1.58400E+05  2640.0      110.00     0.30116    
         TOTAL TIME 9.50400E+06 1.58400E+05  2640.0      110.00     0.30116    
1
 
 SOLVING FOR HEAD 
                                                   Max.-Head-Change                        Max.-Flux-Residual
  Residual-Control   Outer-Iter.   Inner-Iter.     Column Row Layer    Max.-Head-Change    Column Row Layer    Max.-Flux-Residual            L2-New               L2-Old           Solver-Max-Delh
          0                 1           2            39   21     1       0.4875908739E+00      39   16    1      -0.4591406801E+03      0.2653238236E+04      0.1392578324E+02      0.4875908739E+00
          0                 2           2            39   21     1      -0.4211490740E-01      39   16    1       0.4588210602E+02      0.2652104232E+03      0.2653238236E+04     -0.4211490740E-01

    ------------------------------------------------
       NWT REQUIRED            2 OUTER ITERATIONS 
       AND A TOTAL OF          4 INNER ITERATIONS.
    ------------------------------------------------

 OUTPUT CONTROL FOR STRESS PERIOD    1   TIME STEP  111
    SAVE HEAD FOR ALL LAYERS
    SAVE DRAWDOWN FOR ALL LAYERS
    SAVE BUDGET
    PRINT BUDGET
 UBDSV1 SAVING "         STORAGE" ON UNIT   9 AT TIME STEP111, STRESS PERIOD   1
 UBDSV2 SAVING "   CONSTANT HEAD" ON UNIT   9 AT TIME STEP111, STRESS PERIOD   1
 UBDSV1 SAVING "FLOW RIGHT FACE " ON UNIT   9 AT TIME STEP111, STRESS PERIOD   1
 UBDSV1 SAVING "FLOW FRONT FACE " ON UNIT   9 AT TIME STEP111, STRESS PERIOD   1
 UBDSV4 SAVING "   RIVER LEAKAGE" ON UNIT   9 AT TIME STEP111, STRESS PERIOD   1
 UBDSV3 SAVING "        RECHARGE" ON UNIT   9 AT TIME STEP111, STRESS PERIOD   1

 HEAD WILL BE SAVED ON UNIT 5037 AT END OF TIME STEP  111, STRESS PERIOD    1

 DRAWDOWN WILL BE SAVED ON UNIT   38 AT END OF TIME STEP  111, STRESS PERIOD    1
1
  VOLUMETRIC BUDGET FOR ENTIRE MODEL AT END OF TIME STEP  111, STRESS PERIOD   1
  ------------------------------------------------------------------------------

     CUMULATIVE VOLUMES      L**3       RATES FOR THIS TIME STEP      L**3/T
     ------------------                 ------------------------

           IN:                                      IN:
           ---                                      ---
             STORAGE =     6175985.0000               STORAGE =       33768.0430
       CONSTANT HEAD =           0.0000         CONSTANT HEAD =           0.0000
       RIVER LEAKAGE =      659977.5000         RIVER LEAKAGE =        5502.3750
            RECHARGE =     3113607.0000              RECHARGE =         620.3632

            TOTAL IN =     9949570.0000              TOTAL IN =       39890.7812

          OUT:                                     OUT:
          ----                                     ----
             STORAGE =     4770260.0000               STORAGE =        5433.5757
       CONSTANT HEAD =           0.0000         CONSTANT HEAD =           0.0000
       RIVER LEAKAGE =     5178407.0000         RIVER LEAKAGE =       34315.9609
            RECHARGE =           0.0000              RECHARGE =           0.0000

           TOTAL OUT =     9948667.0000             TOTAL OUT =       39749.5352

            IN - OUT =         903.0000              IN - OUT =         141.2461

 PERCENT DISCREPANCY =           0.01     PERCENT DISCREPANCY =           0.35






         TIME SUMMARY AT END OF TIME STEP  111 IN STRESS PERIOD    1
                    SECONDS     MINUTES      HOURS       DAYS        YEARS
                    -----------------------------------------------------------
   TIME STEP LENGTH  86400.      1440.0      24.000      1.0000     2.73785E-03
 STRESS PERIOD TIME 9.59040E+06 1.59840E+05  2664.0      111.00     0.30390    
         TOTAL TIME 9.59040E+06 1.59840E+05  2664.0      111.00     0.30390    
1
 
 SOLVING FOR HEAD 
                                                   Max.-Head-Change                        Max.-Flux-Residual
  Residual-Control   Outer-Iter.   Inner-Iter.     Column Row Layer    Max.-Head-Change    Column Row Layer    Max.-Flux-Residual            L2-New               L2-Old           Solver-Max-Delh
          0                 1           2            39   21     1       0.3684014955E+00      39   16    1      -0.4542397760E+03      0.2636325513E+04      0.1327026525E+02      0.3684014955E+00
          0                 2           2            39   21     1      -0.3182092678E-01      39   16    1       0.4538419877E+02      0.2635528531E+03      0.2636325513E+04     -0.3182092678E-01

    ------------------------------------------------
       NWT REQUIRED            2 OUTER ITERATIONS 
       AND A TOTAL OF          4 INNER ITERATIONS.
    ------------------------------------------------

 OUTPUT CONTROL FOR STRESS PERIOD    1   TIME STEP  112
    SAVE HEAD FOR ALL LAYERS
    SAVE DRAWDOWN FOR ALL LAYERS
    SAVE BUDGET
    PRINT BUDGET
 UBDSV1 SAVING "         STORAGE" ON UNIT   9 AT TIME STEP112, STRESS PERIOD   1
 UBDSV2 SAVING "   CONSTANT HEAD" ON UNIT   9 AT TIME STEP112, STRESS PERIOD   1
 UBDSV1 SAVING "FLOW RIGHT FACE " ON UNIT   9 AT TIME STEP112, STRESS PERIOD   1
 UBDSV1 SAVING "FLOW FRONT FACE " ON UNIT   9 AT TIME STEP112, STRESS PERIOD   1
 UBDSV4 SAVING "   RIVER LEAKAGE" ON UNIT   9 AT TIME STEP112, STRESS PERIOD   1
 UBDSV3 SAVING "        RECHARGE" ON UNIT   9 AT TIME STEP112, STRESS PERIOD   1

 HEAD WILL BE SAVED ON UNIT 5037 AT END OF TIME STEP  112, STRESS PERIOD    1

 DRAWDOWN WILL BE SAVED ON UNIT   38 AT END OF TIME STEP  112, STRESS PERIOD    1
1
  VOLUMETRIC BUDGET FOR ENTIRE MODEL AT END OF TIME STEP  112, STRESS PERIOD   1
  ------------------------------------------------------------------------------

     CUMULATIVE VOLUMES      L**3       RATES FOR THIS TIME STEP      L**3/T
     ------------------                 ------------------------

           IN:                                      IN:
           ---                                      ---
             STORAGE =     6209585.0000               STORAGE =       33599.9414
       CONSTANT HEAD =           0.0000         CONSTANT HEAD =           0.0000
       RIVER LEAKAGE =      665485.8750         RIVER LEAKAGE =        5508.3716
            RECHARGE =     3114203.0000              RECHARGE =         596.0028

            TOTAL IN =     9989274.0000              TOTAL IN =       39704.3164

          OUT:                                     OUT:
          ----                                     ----
             STORAGE =     4775566.5000               STORAGE =        5306.4414
       CONSTANT HEAD =           0.0000         CONSTANT HEAD =           0.0000
       RIVER LEAKAGE =     5212664.0000         RIVER LEAKAGE =       34256.8320
            RECHARGE =           0.0000              RECHARGE =           0.0000

           TOTAL OUT =     9988230.0000             TOTAL OUT =       39563.2734

            IN - OUT =        1044.0000              IN - OUT =         141.0430

 PERCENT DISCREPANCY =           0.01     PERCENT DISCREPANCY =           0.36






         TIME SUMMARY AT END OF TIME STEP  112 IN STRESS PERIOD    1
                    SECONDS     MINUTES      HOURS       DAYS        YEARS
                    -----------------------------------------------------------
   TIME STEP LENGTH  86400.      1440.0      24.000      1.0000     2.73785E-03
 STRESS PERIOD TIME 9.67680E+06 1.61280E+05  2688.0      112.00     0.30664    
         TOTAL TIME 9.67680E+06 1.61280E+05  2688.0      112.00     0.30664    
1
 
 SOLVING FOR HEAD 
                                                   Max.-Head-Change                        Max.-Flux-Residual
  Residual-Control   Outer-Iter.   Inner-Iter.     Column Row Layer    Max.-Head-Change    Column Row Layer    Max.-Flux-Residual            L2-New               L2-Old           Solver-Max-Delh
          0                 1           2            39   21     1       0.2856039669E+00      39   16    1      -0.4460632467E+03      0.2621029575E+04      0.1317707087E+02      0.2856039669E+00
          0                 2           2             9    6     1       0.2762163907E+00       9    6    1       0.4589051342E+02      0.2658142383E+03      0.2621029575E+04      0.2762163907E+00
          0                 3           2             9    6     1      -0.2385505306E-01       9    6    1      -0.4677107348E+01      0.1391898426E+02      0.2658142383E+03     -0.2385505306E-01

    ------------------------------------------------
       NWT REQUIRED            3 OUTER ITERATIONS 
       AND A TOTAL OF          6 INNER ITERATIONS.
    ------------------------------------------------

 OUTPUT CONTROL FOR STRESS PERIOD    1   TIME STEP  113
    SAVE HEAD FOR ALL LAYERS
    SAVE DRAWDOWN FOR ALL LAYERS
    SAVE BUDGET
    PRINT BUDGET
 UBDSV1 SAVING "         STORAGE" ON UNIT   9 AT TIME STEP113, STRESS PERIOD   1
 UBDSV2 SAVING "   CONSTANT HEAD" ON UNIT   9 AT TIME STEP113, STRESS PERIOD   1
 UBDSV1 SAVING "FLOW RIGHT FACE " ON UNIT   9 AT TIME STEP113, STRESS PERIOD   1
 UBDSV1 SAVING "FLOW FRONT FACE " ON UNIT   9 AT TIME STEP113, STRESS PERIOD   1
 UBDSV4 SAVING "   RIVER LEAKAGE" ON UNIT   9 AT TIME STEP113, STRESS PERIOD   1
 UBDSV3 SAVING "        RECHARGE" ON UNIT   9 AT TIME STEP113, STRESS PERIOD   1

 HEAD WILL BE SAVED ON UNIT 5037 AT END OF TIME STEP  113, STRESS PERIOD    1

 DRAWDOWN WILL BE SAVED ON UNIT   38 AT END OF TIME STEP  113, STRESS PERIOD    1
1
  VOLUMETRIC BUDGET FOR ENTIRE MODEL AT END OF TIME STEP  113, STRESS PERIOD   1
  ------------------------------------------------------------------------------

     CUMULATIVE VOLUMES      L**3       RATES FOR THIS TIME STEP      L**3/T
     ------------------                 ------------------------

           IN:                                      IN:
           ---                                      ---
             STORAGE =     6242867.5000               STORAGE =       33282.5664
       CONSTANT HEAD =           0.0000         CONSTANT HEAD =           0.0000
       RIVER LEAKAGE =      671000.1875         RIVER LEAKAGE =        5514.3037
            RECHARGE =     3114776.0000              RECHARGE =         573.1102

            TOTAL IN =    10028644.0000              TOTAL IN =       39369.9805

          OUT:                                     OUT:
          ----                                     ----
             STORAGE =     4780732.0000               STORAGE =        5165.3506
       CONSTANT HEAD =           0.0000         CONSTANT HEAD =           0.0000
       RIVER LEAKAGE =     5246861.5000         RIVER LEAKAGE =       34197.7383
            RECHARGE =           0.0000              RECHARGE =           0.0000

           TOTAL OUT =    10027594.0000             TOTAL OUT =       39363.0898

            IN - OUT =        1050.0000              IN - OUT =           6.8906

 PERCENT DISCREPANCY =           0.01     PERCENT DISCREPANCY =           0.02






         TIME SUMMARY AT END OF TIME STEP  113 IN STRESS PERIOD    1
                    SECONDS     MINUTES      HOURS       DAYS        YEARS
                    -----------------------------------------------------------
   TIME STEP LENGTH  86400.      1440.0      24.000      1.0000     2.73785E-03
 STRESS PERIOD TIME 9.76320E+06 1.62720E+05  2712.0      113.00     0.30938    
         TOTAL TIME 9.76320E+06 1.62720E+05  2712.0      113.00     0.30938    
1
 
 SOLVING FOR HEAD 
                                                   Max.-Head-Change                        Max.-Flux-Residual
  Residual-Control   Outer-Iter.   Inner-Iter.     Column Row Layer    Max.-Head-Change    Column Row Layer    Max.-Flux-Residual            L2-New               L2-Old           Solver-Max-Delh
          0                 1           2             9    6     1       0.5600664419E+00      39   16    1      -0.4389573157E+03      0.2606704707E+04      0.1391898426E+02      0.5600664419E+00
          0                 2           2             9    6     1      -0.4836939765E-01      39   16    1       0.4386201554E+02      0.2605976256E+03      0.2606704707E+04     -0.4836939765E-01

    ------------------------------------------------
       NWT REQUIRED            2 OUTER ITERATIONS 
       AND A TOTAL OF          4 INNER ITERATIONS.
    ------------------------------------------------

 OUTPUT CONTROL FOR STRESS PERIOD    1   TIME STEP  114
    SAVE HEAD FOR ALL LAYERS
    SAVE DRAWDOWN FOR ALL LAYERS
    SAVE BUDGET
    PRINT BUDGET
 UBDSV1 SAVING "         STORAGE" ON UNIT   9 AT TIME STEP114, STRESS PERIOD   1
 UBDSV2 SAVING "   CONSTANT HEAD" ON UNIT   9 AT TIME STEP114, STRESS PERIOD   1
 UBDSV1 SAVING "FLOW RIGHT FACE " ON UNIT   9 AT TIME STEP114, STRESS PERIOD   1
 UBDSV1 SAVING "FLOW FRONT FACE " ON UNIT   9 AT TIME STEP114, STRESS PERIOD   1
 UBDSV4 SAVING "   RIVER LEAKAGE" ON UNIT   9 AT TIME STEP114, STRESS PERIOD   1
 UBDSV3 SAVING "        RECHARGE" ON UNIT   9 AT TIME STEP114, STRESS PERIOD   1

 HEAD WILL BE SAVED ON UNIT 5037 AT END OF TIME STEP  114, STRESS PERIOD    1

 DRAWDOWN WILL BE SAVED ON UNIT   38 AT END OF TIME STEP  114, STRESS PERIOD    1
1
  VOLUMETRIC BUDGET FOR ENTIRE MODEL AT END OF TIME STEP  114, STRESS PERIOD   1
  ------------------------------------------------------------------------------

     CUMULATIVE VOLUMES      L**3       RATES FOR THIS TIME STEP      L**3/T
     ------------------                 ------------------------

           IN:                                      IN:
           ---                                      ---
             STORAGE =     6276156.0000               STORAGE =       33288.5117
       CONSTANT HEAD =           0.0000         CONSTANT HEAD =           0.0000
       RIVER LEAKAGE =      676520.4375         RIVER LEAKAGE =        5520.2559
            RECHARGE =     3115327.5000              RECHARGE =         551.5698

            TOTAL IN =    10068004.0000              TOTAL IN =       39360.3359

          OUT:                                     OUT:
          ----                                     ----
             STORAGE =     4785814.0000               STORAGE =        5082.0640
       CONSTANT HEAD =           0.0000         CONSTANT HEAD =           0.0000
       RIVER LEAKAGE =     5280999.0000         RIVER LEAKAGE =       34137.6602
            RECHARGE =           0.0000              RECHARGE =           0.0000

           TOTAL OUT =    10066813.0000             TOTAL OUT =       39219.7227

            IN - OUT =        1191.0000              IN - OUT =         140.6133

 PERCENT DISCREPANCY =           0.01     PERCENT DISCREPANCY =           0.36






         TIME SUMMARY AT END OF TIME STEP  114 IN STRESS PERIOD    1
                    SECONDS     MINUTES      HOURS       DAYS        YEARS
                    -----------------------------------------------------------
   TIME STEP LENGTH  86400.      1440.0      24.000      1.0000     2.73785E-03
 STRESS PERIOD TIME 9.84960E+06 1.64160E+05  2736.0      114.00     0.31211    
         TOTAL TIME 9.84960E+06 1.64160E+05  2736.0      114.00     0.31211    
1
 
 SOLVING FOR HEAD 
                                                   Max.-Head-Change                        Max.-Flux-Residual
  Residual-Control   Outer-Iter.   Inner-Iter.     Column Row Layer    Max.-Head-Change    Column Row Layer    Max.-Flux-Residual            L2-New               L2-Old           Solver-Max-Delh
          0                 1           2             9    6     1       0.4499191551E+00      39   16    1      -0.4326799460E+03      0.2592943990E+04      0.1302933172E+02      0.4499191551E+00
          0                 2           2            25   17     1       0.4019507326E+00      25   17    1       0.1045727367E+03      0.2791500145E+03      0.2592943990E+04      0.4019507326E+00
          0                 3           2            25   17     1      -0.3472305461E-01      25   17    1      -0.1045727382E+02      0.1663298153E+02      0.2791500145E+03     -0.3472305461E-01

    ------------------------------------------------
       NWT REQUIRED            3 OUTER ITERATIONS 
       AND A TOTAL OF          6 INNER ITERATIONS.
    ------------------------------------------------

 OUTPUT CONTROL FOR STRESS PERIOD    1   TIME STEP  115
    SAVE HEAD FOR ALL LAYERS
    SAVE DRAWDOWN FOR ALL LAYERS
    SAVE BUDGET
    PRINT BUDGET
 UBDSV1 SAVING "         STORAGE" ON UNIT   9 AT TIME STEP115, STRESS PERIOD   1
 UBDSV2 SAVING "   CONSTANT HEAD" ON UNIT   9 AT TIME STEP115, STRESS PERIOD   1
 UBDSV1 SAVING "FLOW RIGHT FACE " ON UNIT   9 AT TIME STEP115, STRESS PERIOD   1
 UBDSV1 SAVING "FLOW FRONT FACE " ON UNIT   9 AT TIME STEP115, STRESS PERIOD   1
 UBDSV4 SAVING "   RIVER LEAKAGE" ON UNIT   9 AT TIME STEP115, STRESS PERIOD   1
 UBDSV3 SAVING "        RECHARGE" ON UNIT   9 AT TIME STEP115, STRESS PERIOD   1

 HEAD WILL BE SAVED ON UNIT 5037 AT END OF TIME STEP  115, STRESS PERIOD    1

 DRAWDOWN WILL BE SAVED ON UNIT   38 AT END OF TIME STEP  115, STRESS PERIOD    1
1
  VOLUMETRIC BUDGET FOR ENTIRE MODEL AT END OF TIME STEP  115, STRESS PERIOD   1
  ------------------------------------------------------------------------------

     CUMULATIVE VOLUMES      L**3       RATES FOR THIS TIME STEP      L**3/T
     ------------------                 ------------------------

           IN:                                      IN:
           ---                                      ---
             STORAGE =     6309140.0000               STORAGE =       32984.0703
       CONSTANT HEAD =           0.0000         CONSTANT HEAD =           0.0000
       RIVER LEAKAGE =      682046.5625         RIVER LEAKAGE =        5526.1172
            RECHARGE =     3115858.7500              RECHARGE =         531.2779

            TOTAL IN =    10107045.0000              TOTAL IN =       39041.4648

          OUT:                                     OUT:
          ----                                     ----
             STORAGE =     4790771.0000               STORAGE =        4957.0059
       CONSTANT HEAD =           0.0000         CONSTANT HEAD =           0.0000
       RIVER LEAKAGE =     5315077.0000         RIVER LEAKAGE =       34077.8672
            RECHARGE =           0.0000              RECHARGE =           0.0000

           TOTAL OUT =    10105848.0000             TOTAL OUT =       39034.8750

            IN - OUT =        1197.0000              IN - OUT =           6.5898

 PERCENT DISCREPANCY =           0.01     PERCENT DISCREPANCY =           0.02






         TIME SUMMARY AT END OF TIME STEP  115 IN STRESS PERIOD    1
                    SECONDS     MINUTES      HOURS       DAYS        YEARS
                    -----------------------------------------------------------
   TIME STEP LENGTH  86400.      1440.0      24.000      1.0000     2.73785E-03
 STRESS PERIOD TIME 9.93600E+06 1.65600E+05  2760.0      115.00     0.31485    
         TOTAL TIME 9.93600E+06 1.65600E+05  2760.0      115.00     0.31485    
1
 
 SOLVING FOR HEAD 
                                                   Max.-Head-Change                        Max.-Flux-Residual
  Residual-Control   Outer-Iter.   Inner-Iter.     Column Row Layer    Max.-Head-Change    Column Row Layer    Max.-Flux-Residual            L2-New               L2-Old           Solver-Max-Delh
          0                 1           2            25   17     1       0.4587536721E+00      39   16    1      -0.4270475943E+03      0.2578579623E+04      0.1663298153E+02      0.4587536721E+00
          0                 2           2            25   17     1      -0.3961986962E-01      39   16    1       0.4267485710E+02      0.2577874274E+03      0.2578579623E+04     -0.3961986962E-01

    ------------------------------------------------
       NWT REQUIRED            2 OUTER ITERATIONS 
       AND A TOTAL OF          4 INNER ITERATIONS.
    ------------------------------------------------

 OUTPUT CONTROL FOR STRESS PERIOD    1   TIME STEP  116
    SAVE HEAD FOR ALL LAYERS
    SAVE DRAWDOWN FOR ALL LAYERS
    SAVE BUDGET
    PRINT BUDGET
 UBDSV1 SAVING "         STORAGE" ON UNIT   9 AT TIME STEP116, STRESS PERIOD   1
 UBDSV2 SAVING "   CONSTANT HEAD" ON UNIT   9 AT TIME STEP116, STRESS PERIOD   1
 UBDSV1 SAVING "FLOW RIGHT FACE " ON UNIT   9 AT TIME STEP116, STRESS PERIOD   1
 UBDSV1 SAVING "FLOW FRONT FACE " ON UNIT   9 AT TIME STEP116, STRESS PERIOD   1
 UBDSV4 SAVING "   RIVER LEAKAGE" ON UNIT   9 AT TIME STEP116, STRESS PERIOD   1
 UBDSV3 SAVING "        RECHARGE" ON UNIT   9 AT TIME STEP116, STRESS PERIOD   1

 HEAD WILL BE SAVED ON UNIT 5037 AT END OF TIME STEP  116, STRESS PERIOD    1

 DRAWDOWN WILL BE SAVED ON UNIT   38 AT END OF TIME STEP  116, STRESS PERIOD    1
1
  VOLUMETRIC BUDGET FOR ENTIRE MODEL AT END OF TIME STEP  116, STRESS PERIOD   1
  ------------------------------------------------------------------------------

     CUMULATIVE VOLUMES      L**3       RATES FOR THIS TIME STEP      L**3/T
     ------------------                 ------------------------

           IN:                                      IN:
           ---                                      ---
             STORAGE =     6342140.5000               STORAGE =       33000.4062
       CONSTANT HEAD =           0.0000         CONSTANT HEAD =           0.0000
       RIVER LEAKAGE =      687578.5625         RIVER LEAKAGE =        5531.9888
            RECHARGE =     3116371.0000              RECHARGE =         512.1406

            TOTAL IN =    10146090.0000              TOTAL IN =       39044.5352

          OUT:                                     OUT:
          ----                                     ----
             STORAGE =     4795658.0000               STORAGE =        4886.9683
       CONSTANT HEAD =           0.0000         CONSTANT HEAD =           0.0000
       RIVER LEAKAGE =     5349094.5000         RIVER LEAKAGE =       34017.4141
            RECHARGE =           0.0000              RECHARGE =           0.0000

           TOTAL OUT =    10144752.0000             TOTAL OUT =       38904.3828

            IN - OUT =        1338.0000              IN - OUT =         140.1523

 PERCENT DISCREPANCY =           0.01     PERCENT DISCREPANCY =           0.36






         TIME SUMMARY AT END OF TIME STEP  116 IN STRESS PERIOD    1
                    SECONDS     MINUTES      HOURS       DAYS        YEARS
                    -----------------------------------------------------------
   TIME STEP LENGTH  86400.      1440.0      24.000      1.0000     2.73785E-03
 STRESS PERIOD TIME 1.00224E+07 1.67040E+05  2784.0      116.00     0.31759    
         TOTAL TIME 1.00224E+07 1.67040E+05  2784.0      116.00     0.31759    
1
 
 SOLVING FOR HEAD 
                                                   Max.-Head-Change                        Max.-Flux-Residual
  Residual-Control   Outer-Iter.   Inner-Iter.     Column Row Layer    Max.-Head-Change    Column Row Layer    Max.-Flux-Residual            L2-New               L2-Old           Solver-Max-Delh
          0                 1           2            25   17     1       0.3588024550E+00      39   16    1      -0.4219187142E+03      0.2565101158E+04      0.1288883908E+02      0.3588024550E+00
          0                 2           2            25   17     1      -0.3331880318E-01      39   16    1       0.4216336666E+02      0.2564774757E+03      0.2565101158E+04     -0.3331880318E-01

    ------------------------------------------------
       NWT REQUIRED            2 OUTER ITERATIONS 
       AND A TOTAL OF          4 INNER ITERATIONS.
    ------------------------------------------------

 OUTPUT CONTROL FOR STRESS PERIOD    1   TIME STEP  117
    SAVE HEAD FOR ALL LAYERS
    SAVE DRAWDOWN FOR ALL LAYERS
    SAVE BUDGET
    PRINT BUDGET
 UBDSV1 SAVING "         STORAGE" ON UNIT   9 AT TIME STEP117, STRESS PERIOD   1
 UBDSV2 SAVING "   CONSTANT HEAD" ON UNIT   9 AT TIME STEP117, STRESS PERIOD   1
 UBDSV1 SAVING "FLOW RIGHT FACE " ON UNIT   9 AT TIME STEP117, STRESS PERIOD   1
 UBDSV1 SAVING "FLOW FRONT FACE " ON UNIT   9 AT TIME STEP117, STRESS PERIOD   1
 UBDSV4 SAVING "   RIVER LEAKAGE" ON UNIT   9 AT TIME STEP117, STRESS PERIOD   1
 UBDSV3 SAVING "        RECHARGE" ON UNIT   9 AT TIME STEP117, STRESS PERIOD   1

 HEAD WILL BE SAVED ON UNIT 5037 AT END OF TIME STEP  117, STRESS PERIOD    1

 DRAWDOWN WILL BE SAVED ON UNIT   38 AT END OF TIME STEP  117, STRESS PERIOD    1
1
  VOLUMETRIC BUDGET FOR ENTIRE MODEL AT END OF TIME STEP  117, STRESS PERIOD   1
  ------------------------------------------------------------------------------

     CUMULATIVE VOLUMES      L**3       RATES FOR THIS TIME STEP      L**3/T
     ------------------                 ------------------------

           IN:                                      IN:
           ---                                      ---
             STORAGE =     6375005.0000               STORAGE =       32864.2812
       CONSTANT HEAD =           0.0000         CONSTANT HEAD =           0.0000
       RIVER LEAKAGE =      693116.3750         RIVER LEAKAGE =        5537.8037
            RECHARGE =     3116865.0000              RECHARGE =         494.0732

            TOTAL IN =    10184986.0000              TOTAL IN =       38896.1602

          OUT:                                     OUT:
          ----                                     ----
             STORAGE =     4800457.0000               STORAGE =        4798.9561
       CONSTANT HEAD =           0.0000         CONSTANT HEAD =           0.0000
       RIVER LEAKAGE =     5383052.0000         RIVER LEAKAGE =       33957.2891
            RECHARGE =           0.0000              RECHARGE =           0.0000

           TOTAL OUT =    10183509.0000             TOTAL OUT =       38756.2461

            IN - OUT =        1477.0000              IN - OUT =         139.9141

 PERCENT DISCREPANCY =           0.01     PERCENT DISCREPANCY =           0.36






         TIME SUMMARY AT END OF TIME STEP  117 IN STRESS PERIOD    1
                    SECONDS     MINUTES      HOURS       DAYS        YEARS
                    -----------------------------------------------------------
   TIME STEP LENGTH  86400.      1440.0      24.000      1.0000     2.73785E-03
 STRESS PERIOD TIME 1.01088E+07 1.68480E+05  2808.0      117.00     0.32033    
         TOTAL TIME 1.01088E+07 1.68480E+05  2808.0      117.00     0.32033    
1
 
 SOLVING FOR HEAD 
                                                   Max.-Head-Change                        Max.-Flux-Residual
  Residual-Control   Outer-Iter.   Inner-Iter.     Column Row Layer    Max.-Head-Change    Column Row Layer    Max.-Flux-Residual            L2-New               L2-Old           Solver-Max-Delh
          0                 1           2            25   17     1       0.2788345273E+00      39   16    1      -0.4171968127E+03      0.2552399457E+04      0.1282335009E+02      0.2788345273E+00
          0                 2           2            39   20     1      -0.5172576280E-01      39   16    1       0.4169234172E+02      0.2554549968E+03      0.2552399457E+04     -0.5172576280E-01
          1                 2           0            39   20     1      -0.3620803334E-01      39   20    1       0.5080132091E+03      0.5081729181E+03      0.2554549968E+03     -0.5172576280E-01
          2                 2           0            39   20     1      -0.2534562291E-01      39   20    1       0.3476207252E+03      0.3579469325E+03      0.5081729181E+03     -0.5172576280E-01
          0                 3           2            39   20     1       0.1868150992E-01      39   20    1       0.2353426566E+03      0.2719075658E+03      0.3579469325E+03      0.1868150992E-01

    ------------------------------------------------
       NWT REQUIRED            3 OUTER ITERATIONS 
       AND A TOTAL OF          6 INNER ITERATIONS.
    ------------------------------------------------

 OUTPUT CONTROL FOR STRESS PERIOD    1   TIME STEP  118
    SAVE HEAD FOR ALL LAYERS
    SAVE DRAWDOWN FOR ALL LAYERS
    SAVE BUDGET
    PRINT BUDGET
 UBDSV1 SAVING "         STORAGE" ON UNIT   9 AT TIME STEP118, STRESS PERIOD   1
 UBDSV2 SAVING "   CONSTANT HEAD" ON UNIT   9 AT TIME STEP118, STRESS PERIOD   1
 UBDSV1 SAVING "FLOW RIGHT FACE " ON UNIT   9 AT TIME STEP118, STRESS PERIOD   1
 UBDSV1 SAVING "FLOW FRONT FACE " ON UNIT   9 AT TIME STEP118, STRESS PERIOD   1
 UBDSV4 SAVING "   RIVER LEAKAGE" ON UNIT   9 AT TIME STEP118, STRESS PERIOD   1
 UBDSV3 SAVING "        RECHARGE" ON UNIT   9 AT TIME STEP118, STRESS PERIOD   1

 HEAD WILL BE SAVED ON UNIT 5037 AT END OF TIME STEP  118, STRESS PERIOD    1

 DRAWDOWN WILL BE SAVED ON UNIT   38 AT END OF TIME STEP  118, STRESS PERIOD    1
1
  VOLUMETRIC BUDGET FOR ENTIRE MODEL AT END OF TIME STEP  118, STRESS PERIOD   1
  ------------------------------------------------------------------------------

     CUMULATIVE VOLUMES      L**3       RATES FOR THIS TIME STEP      L**3/T
     ------------------                 ------------------------

           IN:                                      IN:
           ---                                      ---
             STORAGE =     6407661.0000               STORAGE =       32655.9258
       CONSTANT HEAD =           0.0000         CONSTANT HEAD =           0.0000
       RIVER LEAKAGE =      698659.9375         RIVER LEAKAGE =        5543.5522
            RECHARGE =     3117342.0000              RECHARGE =         476.9983

            TOTAL IN =    10223663.0000              TOTAL IN =       38676.4766

          OUT:                                     OUT:
          ----                                     ----
             STORAGE =     4805118.5000               STORAGE =        4661.6714
       CONSTANT HEAD =           0.0000         CONSTANT HEAD =           0.0000
       RIVER LEAKAGE =     5416949.5000         RIVER LEAKAGE =       33897.3906
            RECHARGE =           0.0000              RECHARGE =           0.0000

           TOTAL OUT =    10222068.0000             TOTAL OUT =       38559.0625

            IN - OUT =        1595.0000              IN - OUT =         117.4141

 PERCENT DISCREPANCY =           0.02     PERCENT DISCREPANCY =           0.30






         TIME SUMMARY AT END OF TIME STEP  118 IN STRESS PERIOD    1
                    SECONDS     MINUTES      HOURS       DAYS        YEARS
                    -----------------------------------------------------------
   TIME STEP LENGTH  86400.      1440.0      24.000      1.0000     2.73785E-03
 STRESS PERIOD TIME 1.01952E+07 1.69920E+05  2832.0      118.00     0.32307    
         TOTAL TIME 1.01952E+07 1.69920E+05  2832.0      118.00     0.32307    
1
 
 SOLVING FOR HEAD 
                                                   Max.-Head-Change                        Max.-Flux-Residual
  Residual-Control   Outer-Iter.   Inner-Iter.     Column Row Layer    Max.-Head-Change    Column Row Layer    Max.-Flux-Residual            L2-New               L2-Old           Solver-Max-Delh
          0                 1           2            25   17     1       0.2229302712E+00      39   16    1      -0.4128029180E+03      0.2540251196E+04      0.4229837126E+02      0.2229302712E+00
          0                 2           2            39   20     1       0.6561693137E+00      39   20    1       0.2076980147E+03      0.3270105652E+03      0.2540251196E+04      0.6561693137E+00
          0                 3           2            39   20     1      -0.5667117159E-01      39   20    1      -0.2077070156E+02      0.2431637075E+02      0.3270105652E+03     -0.5667117159E-01

    ------------------------------------------------
       NWT REQUIRED            3 OUTER ITERATIONS 
       AND A TOTAL OF          6 INNER ITERATIONS.
    ------------------------------------------------

 OUTPUT CONTROL FOR STRESS PERIOD    1   TIME STEP  119
    SAVE HEAD FOR ALL LAYERS
    SAVE DRAWDOWN FOR ALL LAYERS
    SAVE BUDGET
    PRINT BUDGET
 UBDSV1 SAVING "         STORAGE" ON UNIT   9 AT TIME STEP119, STRESS PERIOD   1
 UBDSV2 SAVING "   CONSTANT HEAD" ON UNIT   9 AT TIME STEP119, STRESS PERIOD   1
 UBDSV1 SAVING "FLOW RIGHT FACE " ON UNIT   9 AT TIME STEP119, STRESS PERIOD   1
 UBDSV1 SAVING "FLOW FRONT FACE " ON UNIT   9 AT TIME STEP119, STRESS PERIOD   1
 UBDSV4 SAVING "   RIVER LEAKAGE" ON UNIT   9 AT TIME STEP119, STRESS PERIOD   1
 UBDSV3 SAVING "        RECHARGE" ON UNIT   9 AT TIME STEP119, STRESS PERIOD   1

 HEAD WILL BE SAVED ON UNIT 5037 AT END OF TIME STEP  119, STRESS PERIOD    1

 DRAWDOWN WILL BE SAVED ON UNIT   38 AT END OF TIME STEP  119, STRESS PERIOD    1
1
  VOLUMETRIC BUDGET FOR ENTIRE MODEL AT END OF TIME STEP  119, STRESS PERIOD   1
  ------------------------------------------------------------------------------

     CUMULATIVE VOLUMES      L**3       RATES FOR THIS TIME STEP      L**3/T
     ------------------                 ------------------------

           IN:                                      IN:
           ---                                      ---
             STORAGE =     6440108.5000               STORAGE =       32447.5039
       CONSTANT HEAD =           0.0000         CONSTANT HEAD =           0.0000
       RIVER LEAKAGE =      704209.6875         RIVER LEAKAGE =        5549.7563
            RECHARGE =     3117802.7500              RECHARGE =         460.8457

            TOTAL IN =    10262121.0000              TOTAL IN =       38458.1094

          OUT:                                     OUT:
          ----                                     ----
             STORAGE =     4809731.5000               STORAGE =        4613.1992
       CONSTANT HEAD =           0.0000         CONSTANT HEAD =           0.0000
       RIVER LEAKAGE =     5450788.0000         RIVER LEAKAGE =       33838.7461
            RECHARGE =           0.0000              RECHARGE =           0.0000

           TOTAL OUT =    10260520.0000             TOTAL OUT =       38451.9453

            IN - OUT =        1601.0000              IN - OUT =           6.1641

 PERCENT DISCREPANCY =           0.02     PERCENT DISCREPANCY =           0.02






         TIME SUMMARY AT END OF TIME STEP  119 IN STRESS PERIOD    1
                    SECONDS     MINUTES      HOURS       DAYS        YEARS
                    -----------------------------------------------------------
   TIME STEP LENGTH  86400.      1440.0      24.000      1.0000     2.73785E-03
 STRESS PERIOD TIME 1.02816E+07 1.71360E+05  2856.0      119.00     0.32580    
         TOTAL TIME 1.02816E+07 1.71360E+05  2856.0      119.00     0.32580    
1
 
 SOLVING FOR HEAD 
                                                   Max.-Head-Change                        Max.-Flux-Residual
  Residual-Control   Outer-Iter.   Inner-Iter.     Column Row Layer    Max.-Head-Change    Column Row Layer    Max.-Flux-Residual            L2-New               L2-Old           Solver-Max-Delh
          0                 1           2            39   20     1       0.6800035705E+00      39   16    1      -0.4086648180E+03      0.2522855639E+04      0.2431637075E+02      0.6800035705E+00
          0                 2           2            39   20     1      -0.5874131718E-01      39   16    1       0.4084097938E+02      0.2549183442E+03      0.2522855639E+04     -0.5874131718E-01

    ------------------------------------------------
       NWT REQUIRED            2 OUTER ITERATIONS 
       AND A TOTAL OF          4 INNER ITERATIONS.
    ------------------------------------------------

 OUTPUT CONTROL FOR STRESS PERIOD    1   TIME STEP  120
    SAVE HEAD FOR ALL LAYERS
    SAVE DRAWDOWN FOR ALL LAYERS
    SAVE BUDGET
    PRINT BUDGET
 UBDSV1 SAVING "         STORAGE" ON UNIT   9 AT TIME STEP120, STRESS PERIOD   1
 UBDSV2 SAVING "   CONSTANT HEAD" ON UNIT   9 AT TIME STEP120, STRESS PERIOD   1
 UBDSV1 SAVING "FLOW RIGHT FACE " ON UNIT   9 AT TIME STEP120, STRESS PERIOD   1
 UBDSV1 SAVING "FLOW FRONT FACE " ON UNIT   9 AT TIME STEP120, STRESS PERIOD   1
 UBDSV4 SAVING "   RIVER LEAKAGE" ON UNIT   9 AT TIME STEP120, STRESS PERIOD   1
 UBDSV3 SAVING "        RECHARGE" ON UNIT   9 AT TIME STEP120, STRESS PERIOD   1

 HEAD WILL BE SAVED ON UNIT 5037 AT END OF TIME STEP  120, STRESS PERIOD    1

 DRAWDOWN WILL BE SAVED ON UNIT   38 AT END OF TIME STEP  120, STRESS PERIOD    1
1
  VOLUMETRIC BUDGET FOR ENTIRE MODEL AT END OF TIME STEP  120, STRESS PERIOD   1
  ------------------------------------------------------------------------------

     CUMULATIVE VOLUMES      L**3       RATES FOR THIS TIME STEP      L**3/T
     ------------------                 ------------------------

           IN:                                      IN:
           ---                                      ---
             STORAGE =     6472585.0000               STORAGE =       32476.3535
       CONSTANT HEAD =           0.0000         CONSTANT HEAD =           0.0000
       RIVER LEAKAGE =      709766.1250         RIVER LEAKAGE =        5556.4209
            RECHARGE =     3118248.2500              RECHARGE =         445.5515

            TOTAL IN =    10300599.0000              TOTAL IN =       38478.3242

          OUT:                                     OUT:
          ----                                     ----
             STORAGE =     4814289.5000               STORAGE =        4558.1938
       CONSTANT HEAD =           0.0000         CONSTANT HEAD =           0.0000
       RIVER LEAKAGE =     5484568.5000         RIVER LEAKAGE =       33780.3125
            RECHARGE =           0.0000              RECHARGE =           0.0000

           TOTAL OUT =    10298858.0000             TOTAL OUT =       38338.5078

            IN - OUT =        1741.0000              IN - OUT =         139.8164

 PERCENT DISCREPANCY =           0.02     PERCENT DISCREPANCY =           0.36






         TIME SUMMARY AT END OF TIME STEP  120 IN STRESS PERIOD    1
                    SECONDS     MINUTES      HOURS       DAYS        YEARS
                    -----------------------------------------------------------
   TIME STEP LENGTH  86400.      1440.0      24.000      1.0000     2.73785E-03
 STRESS PERIOD TIME 1.03680E+07 1.72800E+05  2880.0      120.00     0.32854    
         TOTAL TIME 1.03680E+07 1.72800E+05  2880.0      120.00     0.32854    
1
 
 SOLVING FOR HEAD 
                                                   Max.-Head-Change                        Max.-Flux-Residual
  Residual-Control   Outer-Iter.   Inner-Iter.     Column Row Layer    Max.-Head-Change    Column Row Layer    Max.-Flux-Residual            L2-New               L2-Old           Solver-Max-Delh
          0                 1           2            39   20     1       0.5129849024E+00      39   16    1      -0.4047384236E+03      0.2507911442E+04      0.1280800757E+02      0.5129849024E+00
          0                 2           2            39   20     1      -0.4431520332E-01      39   16    1       0.4044908326E+02      0.2510183946E+03      0.2507911442E+04     -0.4431520332E-01

    ------------------------------------------------
       NWT REQUIRED            2 OUTER ITERATIONS 
       AND A TOTAL OF          4 INNER ITERATIONS.
    ------------------------------------------------

 OUTPUT CONTROL FOR STRESS PERIOD    1   TIME STEP  121
    SAVE HEAD FOR ALL LAYERS
    SAVE DRAWDOWN FOR ALL LAYERS
    SAVE BUDGET
    PRINT BUDGET
 UBDSV1 SAVING "         STORAGE" ON UNIT   9 AT TIME STEP121, STRESS PERIOD   1
 UBDSV2 SAVING "   CONSTANT HEAD" ON UNIT   9 AT TIME STEP121, STRESS PERIOD   1
 UBDSV1 SAVING "FLOW RIGHT FACE " ON UNIT   9 AT TIME STEP121, STRESS PERIOD   1
 UBDSV1 SAVING "FLOW FRONT FACE " ON UNIT   9 AT TIME STEP121, STRESS PERIOD   1
 UBDSV4 SAVING "   RIVER LEAKAGE" ON UNIT   9 AT TIME STEP121, STRESS PERIOD   1
 UBDSV3 SAVING "        RECHARGE" ON UNIT   9 AT TIME STEP121, STRESS PERIOD   1

 HEAD WILL BE SAVED ON UNIT 5037 AT END OF TIME STEP  121, STRESS PERIOD    1

 DRAWDOWN WILL BE SAVED ON UNIT   38 AT END OF TIME STEP  121, STRESS PERIOD    1
1
  VOLUMETRIC BUDGET FOR ENTIRE MODEL AT END OF TIME STEP  121, STRESS PERIOD   1
  ------------------------------------------------------------------------------

     CUMULATIVE VOLUMES      L**3       RATES FOR THIS TIME STEP      L**3/T
     ------------------                 ------------------------

           IN:                                      IN:
           ---                                      ---
             STORAGE =     6504936.0000               STORAGE =       32350.8047
       CONSTANT HEAD =           0.0000         CONSTANT HEAD =           0.0000
       RIVER LEAKAGE =      715329.0000         RIVER LEAKAGE =        5562.8940
            RECHARGE =     3118679.2500              RECHARGE =         431.0568

            TOTAL IN =    10338944.0000              TOTAL IN =       38344.7578

          OUT:                                     OUT:
          ----                                     ----
             STORAGE =     4818760.5000               STORAGE =        4471.2222
       CONSTANT HEAD =           0.0000         CONSTANT HEAD =           0.0000
       RIVER LEAKAGE =     5518291.0000         RIVER LEAKAGE =       33722.5156
            RECHARGE =           0.0000              RECHARGE =           0.0000

           TOTAL OUT =    10337052.0000             TOTAL OUT =       38193.7383

            IN - OUT =        1892.0000              IN - OUT =         151.0195

 PERCENT DISCREPANCY =           0.02     PERCENT DISCREPANCY =           0.39






         TIME SUMMARY AT END OF TIME STEP  121 IN STRESS PERIOD    1
                    SECONDS     MINUTES      HOURS       DAYS        YEARS
                    -----------------------------------------------------------
   TIME STEP LENGTH  86400.      1440.0      24.000      1.0000     2.73785E-03
 STRESS PERIOD TIME 1.04544E+07 1.74240E+05  2904.0      121.00     0.33128    
         TOTAL TIME 1.04544E+07 1.74240E+05  2904.0      121.00     0.33128    
1
 
 SOLVING FOR HEAD 
                                                   Max.-Head-Change                        Max.-Flux-Residual
  Residual-Control   Outer-Iter.   Inner-Iter.     Column Row Layer    Max.-Head-Change    Column Row Layer    Max.-Flux-Residual            L2-New               L2-Old           Solver-Max-Delh
          0                 1           2            39   20     1       0.3965800618E+00      39   16    1      -0.4009894242E+03      0.2494805231E+04      0.1737902755E+02      0.3965800618E+00
          0                 2           2            39   20     1      -0.3426024968E-01      39   16    1       0.4007484064E+02      0.2496671929E+03      0.2494805231E+04     -0.3426024968E-01

    ------------------------------------------------
       NWT REQUIRED            2 OUTER ITERATIONS 
       AND A TOTAL OF          4 INNER ITERATIONS.
    ------------------------------------------------

 OUTPUT CONTROL FOR STRESS PERIOD    1   TIME STEP  122
    SAVE HEAD FOR ALL LAYERS
    SAVE DRAWDOWN FOR ALL LAYERS
    SAVE BUDGET
    PRINT BUDGET
 UBDSV1 SAVING "         STORAGE" ON UNIT   9 AT TIME STEP122, STRESS PERIOD   1
 UBDSV2 SAVING "   CONSTANT HEAD" ON UNIT   9 AT TIME STEP122, STRESS PERIOD   1
 UBDSV1 SAVING "FLOW RIGHT FACE " ON UNIT   9 AT TIME STEP122, STRESS PERIOD   1
 UBDSV1 SAVING "FLOW FRONT FACE " ON UNIT   9 AT TIME STEP122, STRESS PERIOD   1
 UBDSV4 SAVING "   RIVER LEAKAGE" ON UNIT   9 AT TIME STEP122, STRESS PERIOD   1
 UBDSV3 SAVING "        RECHARGE" ON UNIT   9 AT TIME STEP122, STRESS PERIOD   1

 HEAD WILL BE SAVED ON UNIT 5037 AT END OF TIME STEP  122, STRESS PERIOD    1

 DRAWDOWN WILL BE SAVED ON UNIT   38 AT END OF TIME STEP  122, STRESS PERIOD    1
1
  VOLUMETRIC BUDGET FOR ENTIRE MODEL AT END OF TIME STEP  122, STRESS PERIOD   1
  ------------------------------------------------------------------------------

     CUMULATIVE VOLUMES      L**3       RATES FOR THIS TIME STEP      L**3/T
     ------------------                 ------------------------

           IN:                                      IN:
           ---                                      ---
             STORAGE =     6537165.5000               STORAGE =       32229.3242
       CONSTANT HEAD =           0.0000         CONSTANT HEAD =           0.0000
       RIVER LEAKAGE =      720898.3125         RIVER LEAKAGE =        5569.2964
            RECHARGE =     3119096.5000              RECHARGE =         417.3080

            TOTAL IN =    10377160.0000              TOTAL IN =       38215.9297

          OUT:                                     OUT:
          ----                                     ----
             STORAGE =     4823160.5000               STORAGE =        4400.0312
       CONSTANT HEAD =           0.0000         CONSTANT HEAD =           0.0000
       RIVER LEAKAGE =     5551956.0000         RIVER LEAKAGE =       33665.0273
            RECHARGE =           0.0000              RECHARGE =           0.0000

           TOTAL OUT =    10375116.0000             TOTAL OUT =       38065.0586

            IN - OUT =        2044.0000              IN - OUT =         150.8711

 PERCENT DISCREPANCY =           0.02     PERCENT DISCREPANCY =           0.40






         TIME SUMMARY AT END OF TIME STEP  122 IN STRESS PERIOD    1
                    SECONDS     MINUTES      HOURS       DAYS        YEARS
                    -----------------------------------------------------------
   TIME STEP LENGTH  86400.      1440.0      24.000      1.0000     2.73785E-03
 STRESS PERIOD TIME 1.05408E+07 1.75680E+05  2928.0      122.00     0.33402    
         TOTAL TIME 1.05408E+07 1.75680E+05  2928.0      122.00     0.33402    
1
 
 SOLVING FOR HEAD 
                                                   Max.-Head-Change                        Max.-Flux-Residual
  Residual-Control   Outer-Iter.   Inner-Iter.     Column Row Layer    Max.-Head-Change    Column Row Layer    Max.-Flux-Residual            L2-New               L2-Old           Solver-Max-Delh
          0                 1           2            39   20     1       0.3141688726E+00      39   16    1      -0.3973882405E+03      0.2482592875E+04      0.1729645174E+02      0.3141688726E+00
          0                 2           2            39   20     1      -0.2714133428E-01      39   16    1       0.3971531121E+02      0.2481948789E+03      0.2482592875E+04     -0.2714133428E-01

    ------------------------------------------------
       NWT REQUIRED            2 OUTER ITERATIONS 
       AND A TOTAL OF          4 INNER ITERATIONS.
    ------------------------------------------------

 OUTPUT CONTROL FOR STRESS PERIOD    1   TIME STEP  123
    SAVE HEAD FOR ALL LAYERS
    SAVE DRAWDOWN FOR ALL LAYERS
    SAVE BUDGET
    PRINT BUDGET
 UBDSV1 SAVING "         STORAGE" ON UNIT   9 AT TIME STEP123, STRESS PERIOD   1
 UBDSV2 SAVING "   CONSTANT HEAD" ON UNIT   9 AT TIME STEP123, STRESS PERIOD   1
 UBDSV1 SAVING "FLOW RIGHT FACE " ON UNIT   9 AT TIME STEP123, STRESS PERIOD   1
 UBDSV1 SAVING "FLOW FRONT FACE " ON UNIT   9 AT TIME STEP123, STRESS PERIOD   1
 UBDSV4 SAVING "   RIVER LEAKAGE" ON UNIT   9 AT TIME STEP123, STRESS PERIOD   1
 UBDSV3 SAVING "        RECHARGE" ON UNIT   9 AT TIME STEP123, STRESS PERIOD   1

 HEAD WILL BE SAVED ON UNIT 5037 AT END OF TIME STEP  123, STRESS PERIOD    1

 DRAWDOWN WILL BE SAVED ON UNIT   38 AT END OF TIME STEP  123, STRESS PERIOD    1
1
  VOLUMETRIC BUDGET FOR ENTIRE MODEL AT END OF TIME STEP  123, STRESS PERIOD   1
  ------------------------------------------------------------------------------

     CUMULATIVE VOLUMES      L**3       RATES FOR THIS TIME STEP      L**3/T
     ------------------                 ------------------------

           IN:                                      IN:
           ---                                      ---
             STORAGE =     6569271.0000               STORAGE =       32105.3301
       CONSTANT HEAD =           0.0000         CONSTANT HEAD =           0.0000
       RIVER LEAKAGE =      726474.0000         RIVER LEAKAGE =        5575.6675
            RECHARGE =     3119500.7500              RECHARGE =         404.2558

            TOTAL IN =    10415246.0000              TOTAL IN =       38085.2500

          OUT:                                     OUT:
          ----                                     ----
             STORAGE =     4827498.5000               STORAGE =        4337.7651
       CONSTANT HEAD =           0.0000         CONSTANT HEAD =           0.0000
       RIVER LEAKAGE =     5585565.0000         RIVER LEAKAGE =       33609.0703
            RECHARGE =           0.0000              RECHARGE =           0.0000

           TOTAL OUT =    10413064.0000             TOTAL OUT =       37946.8359

            IN - OUT =        2182.0000              IN - OUT =         138.4141

 PERCENT DISCREPANCY =           0.02     PERCENT DISCREPANCY =           0.36






         TIME SUMMARY AT END OF TIME STEP  123 IN STRESS PERIOD    1
                    SECONDS     MINUTES      HOURS       DAYS        YEARS
                    -----------------------------------------------------------
   TIME STEP LENGTH  86400.      1440.0      24.000      1.0000     2.73785E-03
 STRESS PERIOD TIME 1.06272E+07 1.77120E+05  2952.0      123.00     0.33676    
         TOTAL TIME 1.06272E+07 1.77120E+05  2952.0      123.00     0.33676    
1
 
 SOLVING FOR HEAD 
                                                   Max.-Head-Change                        Max.-Flux-Residual
  Residual-Control   Outer-Iter.   Inner-Iter.     Column Row Layer    Max.-Head-Change    Column Row Layer    Max.-Flux-Residual            L2-New               L2-Old           Solver-Max-Delh
          0                 1           2            39   20     1       0.2548448515E+00      39   16    1      -0.3939120626E+03      0.2470783108E+04      0.1240925316E+02      0.2548448515E+00
          0                 2           2            39   20     1      -0.2201658566E-01      39   16    1       0.3936822777E+02      0.2470141639E+03      0.2470783108E+04     -0.2201658566E-01

    ------------------------------------------------
       NWT REQUIRED            2 OUTER ITERATIONS 
       AND A TOTAL OF          4 INNER ITERATIONS.
    ------------------------------------------------

 OUTPUT CONTROL FOR STRESS PERIOD    1   TIME STEP  124
    SAVE HEAD FOR ALL LAYERS
    SAVE DRAWDOWN FOR ALL LAYERS
    SAVE BUDGET
    PRINT BUDGET
 UBDSV1 SAVING "         STORAGE" ON UNIT   9 AT TIME STEP124, STRESS PERIOD   1
 UBDSV2 SAVING "   CONSTANT HEAD" ON UNIT   9 AT TIME STEP124, STRESS PERIOD   1
 UBDSV1 SAVING "FLOW RIGHT FACE " ON UNIT   9 AT TIME STEP124, STRESS PERIOD   1
 UBDSV1 SAVING "FLOW FRONT FACE " ON UNIT   9 AT TIME STEP124, STRESS PERIOD   1
 UBDSV4 SAVING "   RIVER LEAKAGE" ON UNIT   9 AT TIME STEP124, STRESS PERIOD   1
 UBDSV3 SAVING "        RECHARGE" ON UNIT   9 AT TIME STEP124, STRESS PERIOD   1

 HEAD WILL BE SAVED ON UNIT 5037 AT END OF TIME STEP  124, STRESS PERIOD    1

 DRAWDOWN WILL BE SAVED ON UNIT   38 AT END OF TIME STEP  124, STRESS PERIOD    1
1
  VOLUMETRIC BUDGET FOR ENTIRE MODEL AT END OF TIME STEP  124, STRESS PERIOD   1
  ------------------------------------------------------------------------------

     CUMULATIVE VOLUMES      L**3       RATES FOR THIS TIME STEP      L**3/T
     ------------------                 ------------------------

           IN:                                      IN:
           ---                                      ---
             STORAGE =     6601258.0000               STORAGE =       31987.1875
       CONSTANT HEAD =           0.0000         CONSTANT HEAD =           0.0000
       RIVER LEAKAGE =      732056.3750         RIVER LEAKAGE =        5582.3765
            RECHARGE =     3119892.5000              RECHARGE =         391.8545

            TOTAL IN =    10453207.0000              TOTAL IN =       37961.4180

          OUT:                                     OUT:
          ----                                     ----
             STORAGE =     4831768.0000               STORAGE =        4269.5347
       CONSTANT HEAD =           0.0000         CONSTANT HEAD =           0.0000
       RIVER LEAKAGE =     5619118.5000         RIVER LEAKAGE =       33553.7148
            RECHARGE =           0.0000              RECHARGE =           0.0000

           TOTAL OUT =    10450886.0000             TOTAL OUT =       37823.2500

            IN - OUT =        2321.0000              IN - OUT =         138.1680

 PERCENT DISCREPANCY =           0.02     PERCENT DISCREPANCY =           0.36






         TIME SUMMARY AT END OF TIME STEP  124 IN STRESS PERIOD    1
                    SECONDS     MINUTES      HOURS       DAYS        YEARS
                    -----------------------------------------------------------
   TIME STEP LENGTH  86400.      1440.0      24.000      1.0000     2.73785E-03
 STRESS PERIOD TIME 1.07136E+07 1.78560E+05  2976.0      124.00     0.33949    
         TOTAL TIME 1.07136E+07 1.78560E+05  2976.0      124.00     0.33949    
1
 
 SOLVING FOR HEAD 
                                                   Max.-Head-Change                        Max.-Flux-Residual
  Residual-Control   Outer-Iter.   Inner-Iter.     Column Row Layer    Max.-Head-Change    Column Row Layer    Max.-Flux-Residual            L2-New               L2-Old           Solver-Max-Delh
          0                 1           2            39   20     1       0.2114030495E+00      39   16    1      -0.3905402024E+03      0.2459328211E+04      0.1235022377E+02      0.2114030495E+00
          0                 2           2            19    2     1       0.1082273950E+00      39   16    1       0.3903153156E+02      0.2465838616E+03      0.2459328211E+04      0.1082273950E+00
          0                 3           2            19    2     1      -0.9347095017E-02      39   16    1       0.1951408023E+01      0.1244992545E+02      0.2465838616E+03     -0.9347095017E-02

    ------------------------------------------------
       NWT REQUIRED            3 OUTER ITERATIONS 
       AND A TOTAL OF          6 INNER ITERATIONS.
    ------------------------------------------------

 OUTPUT CONTROL FOR STRESS PERIOD    1   TIME STEP  125
    SAVE HEAD FOR ALL LAYERS
    SAVE DRAWDOWN FOR ALL LAYERS
    SAVE BUDGET
    PRINT BUDGET
 UBDSV1 SAVING "         STORAGE" ON UNIT   9 AT TIME STEP125, STRESS PERIOD   1
 UBDSV2 SAVING "   CONSTANT HEAD" ON UNIT   9 AT TIME STEP125, STRESS PERIOD   1
 UBDSV1 SAVING "FLOW RIGHT FACE " ON UNIT   9 AT TIME STEP125, STRESS PERIOD   1
 UBDSV1 SAVING "FLOW FRONT FACE " ON UNIT   9 AT TIME STEP125, STRESS PERIOD   1
 UBDSV4 SAVING "   RIVER LEAKAGE" ON UNIT   9 AT TIME STEP125, STRESS PERIOD   1
 UBDSV3 SAVING "        RECHARGE" ON UNIT   9 AT TIME STEP125, STRESS PERIOD   1

 HEAD WILL BE SAVED ON UNIT 5037 AT END OF TIME STEP  125, STRESS PERIOD    1

 DRAWDOWN WILL BE SAVED ON UNIT   38 AT END OF TIME STEP  125, STRESS PERIOD    1
1
  VOLUMETRIC BUDGET FOR ENTIRE MODEL AT END OF TIME STEP  125, STRESS PERIOD   1
  ------------------------------------------------------------------------------

     CUMULATIVE VOLUMES      L**3       RATES FOR THIS TIME STEP      L**3/T
     ------------------                 ------------------------

           IN:                                      IN:
           ---                                      ---
             STORAGE =     6632976.0000               STORAGE =       31718.0684
       CONSTANT HEAD =           0.0000         CONSTANT HEAD =           0.0000
       RIVER LEAKAGE =      737645.7500         RIVER LEAKAGE =        5589.3652
            RECHARGE =     3120272.5000              RECHARGE =         380.0625

            TOTAL IN =    10490894.0000              TOTAL IN =       37687.4961

          OUT:                                     OUT:
          ----                                     ----
             STORAGE =     4835949.5000               STORAGE =        4181.5938
       CONSTANT HEAD =           0.0000         CONSTANT HEAD =           0.0000
       RIVER LEAKAGE =     5652617.5000         RIVER LEAKAGE =       33499.0547
            RECHARGE =           0.0000              RECHARGE =           0.0000

           TOTAL OUT =    10488567.0000             TOTAL OUT =       37680.6484

            IN - OUT =        2327.0000              IN - OUT =           6.8477

 PERCENT DISCREPANCY =           0.02     PERCENT DISCREPANCY =           0.02






         TIME SUMMARY AT END OF TIME STEP  125 IN STRESS PERIOD    1
                    SECONDS     MINUTES      HOURS       DAYS        YEARS
                    -----------------------------------------------------------
   TIME STEP LENGTH  86400.      1440.0      24.000      1.0000     2.73785E-03
 STRESS PERIOD TIME 1.08000E+07 1.80000E+05  3000.0      125.00     0.34223    
         TOTAL TIME 1.08000E+07 1.80000E+05  3000.0      125.00     0.34223    
1
 
 SOLVING FOR HEAD 
                                                   Max.-Head-Change                        Max.-Flux-Residual
  Residual-Control   Outer-Iter.   Inner-Iter.     Column Row Layer    Max.-Head-Change    Column Row Layer    Max.-Flux-Residual            L2-New               L2-Old           Solver-Max-Delh
          0                 1           2            40   20     1       0.1925398563E+00      39   16    1      -0.3872590399E+03      0.2448010529E+04      0.1244992545E+02      0.1925398563E+00
          0                 2           2            40   20     1      -0.1662895143E-01      39   16    1       0.3870386892E+02      0.2447385699E+03      0.2448010529E+04     -0.1662895143E-01

    ------------------------------------------------
       NWT REQUIRED            2 OUTER ITERATIONS 
       AND A TOTAL OF          4 INNER ITERATIONS.
    ------------------------------------------------

 OUTPUT CONTROL FOR STRESS PERIOD    1   TIME STEP  126
    SAVE HEAD FOR ALL LAYERS
    SAVE DRAWDOWN FOR ALL LAYERS
    SAVE BUDGET
    PRINT BUDGET
 UBDSV1 SAVING "         STORAGE" ON UNIT   9 AT TIME STEP126, STRESS PERIOD   1
 UBDSV2 SAVING "   CONSTANT HEAD" ON UNIT   9 AT TIME STEP126, STRESS PERIOD   1
 UBDSV1 SAVING "FLOW RIGHT FACE " ON UNIT   9 AT TIME STEP126, STRESS PERIOD   1
 UBDSV1 SAVING "FLOW FRONT FACE " ON UNIT   9 AT TIME STEP126, STRESS PERIOD   1
 UBDSV4 SAVING "   RIVER LEAKAGE" ON UNIT   9 AT TIME STEP126, STRESS PERIOD   1
 UBDSV3 SAVING "        RECHARGE" ON UNIT   9 AT TIME STEP126, STRESS PERIOD   1

 HEAD WILL BE SAVED ON UNIT 5037 AT END OF TIME STEP  126, STRESS PERIOD    1

 DRAWDOWN WILL BE SAVED ON UNIT   38 AT END OF TIME STEP  126, STRESS PERIOD    1
1
  VOLUMETRIC BUDGET FOR ENTIRE MODEL AT END OF TIME STEP  126, STRESS PERIOD   1
  ------------------------------------------------------------------------------

     CUMULATIVE VOLUMES      L**3       RATES FOR THIS TIME STEP      L**3/T
     ------------------                 ------------------------

           IN:                                      IN:
           ---                                      ---
             STORAGE =     6664727.5000               STORAGE =       31751.3672
       CONSTANT HEAD =           0.0000         CONSTANT HEAD =           0.0000
       RIVER LEAKAGE =      743242.1250         RIVER LEAKAGE =        5596.3882
            RECHARGE =     3120641.2500              RECHARGE =         368.8410

            TOTAL IN =    10528611.0000              TOTAL IN =       37716.5938

          OUT:                                     OUT:
          ----                                     ----
             STORAGE =     4840084.5000               STORAGE =        4134.9341
       CONSTANT HEAD =           0.0000         CONSTANT HEAD =           0.0000
       RIVER LEAKAGE =     5686061.5000         RIVER LEAKAGE =       33443.9961
            RECHARGE =           0.0000              RECHARGE =           0.0000

           TOTAL OUT =    10526146.0000             TOTAL OUT =       37578.9297

            IN - OUT =        2465.0000              IN - OUT =         137.6641

 PERCENT DISCREPANCY =           0.02     PERCENT DISCREPANCY =           0.37






         TIME SUMMARY AT END OF TIME STEP  126 IN STRESS PERIOD    1
                    SECONDS     MINUTES      HOURS       DAYS        YEARS
                    -----------------------------------------------------------
   TIME STEP LENGTH  86400.      1440.0      24.000      1.0000     2.73785E-03
 STRESS PERIOD TIME 1.08864E+07 1.81440E+05  3024.0      126.00     0.34497    
         TOTAL TIME 1.08864E+07 1.81440E+05  3024.0      126.00     0.34497    
1
 
 SOLVING FOR HEAD 
                                                   Max.-Head-Change                        Max.-Flux-Residual
  Residual-Control   Outer-Iter.   Inner-Iter.     Column Row Layer    Max.-Head-Change    Column Row Layer    Max.-Flux-Residual            L2-New               L2-Old           Solver-Max-Delh
          0                 1           2            40   20     1       0.1815166918E+00      39   16    1      -0.3840582770E+03      0.2436846764E+04      0.1223645652E+02      0.1815166918E+00
          0                 2           2            40   20     1      -0.1567688765E-01      39   16    1       0.3838421611E+02      0.2436230062E+03      0.2436846764E+04     -0.1567688765E-01

    ------------------------------------------------
       NWT REQUIRED            2 OUTER ITERATIONS 
       AND A TOTAL OF          4 INNER ITERATIONS.
    ------------------------------------------------

 OUTPUT CONTROL FOR STRESS PERIOD    1   TIME STEP  127
    SAVE HEAD FOR ALL LAYERS
    SAVE DRAWDOWN FOR ALL LAYERS
    SAVE BUDGET
    PRINT BUDGET
 UBDSV1 SAVING "         STORAGE" ON UNIT   9 AT TIME STEP127, STRESS PERIOD   1
 UBDSV2 SAVING "   CONSTANT HEAD" ON UNIT   9 AT TIME STEP127, STRESS PERIOD   1
 UBDSV1 SAVING "FLOW RIGHT FACE " ON UNIT   9 AT TIME STEP127, STRESS PERIOD   1
 UBDSV1 SAVING "FLOW FRONT FACE " ON UNIT   9 AT TIME STEP127, STRESS PERIOD   1
 UBDSV4 SAVING "   RIVER LEAKAGE" ON UNIT   9 AT TIME STEP127, STRESS PERIOD   1
 UBDSV3 SAVING "        RECHARGE" ON UNIT   9 AT TIME STEP127, STRESS PERIOD   1

 HEAD WILL BE SAVED ON UNIT 5037 AT END OF TIME STEP  127, STRESS PERIOD    1

 DRAWDOWN WILL BE SAVED ON UNIT   38 AT END OF TIME STEP  127, STRESS PERIOD    1
1
  VOLUMETRIC BUDGET FOR ENTIRE MODEL AT END OF TIME STEP  127, STRESS PERIOD   1
  ------------------------------------------------------------------------------

     CUMULATIVE VOLUMES      L**3       RATES FOR THIS TIME STEP      L**3/T
     ------------------                 ------------------------

           IN:                                      IN:
           ---                                      ---
             STORAGE =     6696365.0000               STORAGE =       31637.4766
       CONSTANT HEAD =           0.0000         CONSTANT HEAD =           0.0000
       RIVER LEAKAGE =      748845.4375         RIVER LEAKAGE =        5603.3379
            RECHARGE =     3120999.5000              RECHARGE =         358.1544

            TOTAL IN =    10566210.0000              TOTAL IN =       37598.9688

          OUT:                                     OUT:
          ----                                     ----
             STORAGE =     4844156.5000               STORAGE =        4072.1948
       CONSTANT HEAD =           0.0000         CONSTANT HEAD =           0.0000
       RIVER LEAKAGE =     5719451.0000         RIVER LEAKAGE =       33389.3633
            RECHARGE =           0.0000              RECHARGE =           0.0000

           TOTAL OUT =    10563608.0000             TOTAL OUT =       37461.5586

            IN - OUT =        2602.0000              IN - OUT =         137.4102

 PERCENT DISCREPANCY =           0.02     PERCENT DISCREPANCY =           0.37






         TIME SUMMARY AT END OF TIME STEP  127 IN STRESS PERIOD    1
                    SECONDS     MINUTES      HOURS       DAYS        YEARS
                    -----------------------------------------------------------
   TIME STEP LENGTH  86400.      1440.0      24.000      1.0000     2.73785E-03
 STRESS PERIOD TIME 1.09728E+07 1.82880E+05  3048.0      127.00     0.34771    
         TOTAL TIME 1.09728E+07 1.82880E+05  3048.0      127.00     0.34771    
1
 
 SOLVING FOR HEAD 
                                                   Max.-Head-Change                        Max.-Flux-Residual
  Residual-Control   Outer-Iter.   Inner-Iter.     Column Row Layer    Max.-Head-Change    Column Row Layer    Max.-Flux-Residual            L2-New               L2-Old           Solver-Max-Delh
          0                 1           2            40   20     1       0.1707101094E+00      39   16    1      -0.3809235791E+03      0.2425855509E+04      0.1218068442E+02      0.1707101094E+00
          0                 2           2            40   20     1      -0.1474354028E-01      39   16    1       0.3807114617E+02      0.2425247126E+03      0.2425855509E+04     -0.1474354028E-01

    ------------------------------------------------
       NWT REQUIRED            2 OUTER ITERATIONS 
       AND A TOTAL OF          4 INNER ITERATIONS.
    ------------------------------------------------

 OUTPUT CONTROL FOR STRESS PERIOD    1   TIME STEP  128
    SAVE HEAD FOR ALL LAYERS
    SAVE DRAWDOWN FOR ALL LAYERS
    SAVE BUDGET
    PRINT BUDGET
 UBDSV1 SAVING "         STORAGE" ON UNIT   9 AT TIME STEP128, STRESS PERIOD   1
 UBDSV2 SAVING "   CONSTANT HEAD" ON UNIT   9 AT TIME STEP128, STRESS PERIOD   1
 UBDSV1 SAVING "FLOW RIGHT FACE " ON UNIT   9 AT TIME STEP128, STRESS PERIOD   1
 UBDSV1 SAVING "FLOW FRONT FACE " ON UNIT   9 AT TIME STEP128, STRESS PERIOD   1
 UBDSV4 SAVING "   RIVER LEAKAGE" ON UNIT   9 AT TIME STEP128, STRESS PERIOD   1
 UBDSV3 SAVING "        RECHARGE" ON UNIT   9 AT TIME STEP128, STRESS PERIOD   1

 HEAD WILL BE SAVED ON UNIT 5037 AT END OF TIME STEP  128, STRESS PERIOD    1

 DRAWDOWN WILL BE SAVED ON UNIT   38 AT END OF TIME STEP  128, STRESS PERIOD    1
1
  VOLUMETRIC BUDGET FOR ENTIRE MODEL AT END OF TIME STEP  128, STRESS PERIOD   1
  ------------------------------------------------------------------------------

     CUMULATIVE VOLUMES      L**3       RATES FOR THIS TIME STEP      L**3/T
     ------------------                 ------------------------

           IN:                                      IN:
           ---                                      ---
             STORAGE =     6727891.0000               STORAGE =       31526.0898
       CONSTANT HEAD =           0.0000         CONSTANT HEAD =           0.0000
       RIVER LEAKAGE =      754455.6875         RIVER LEAKAGE =        5610.2544
            RECHARGE =     3121347.5000              RECHARGE =         347.9695

            TOTAL IN =    10603694.0000              TOTAL IN =       37484.3125

          OUT:                                     OUT:
          ----                                     ----
             STORAGE =     4848168.5000               STORAGE =        4012.2397
       CONSTANT HEAD =           0.0000         CONSTANT HEAD =           0.0000
       RIVER LEAKAGE =     5752786.0000         RIVER LEAKAGE =       33334.9219
            RECHARGE =           0.0000              RECHARGE =           0.0000

           TOTAL OUT =    10600954.0000             TOTAL OUT =       37347.1602

            IN - OUT =        2740.0000              IN - OUT =         137.1523

 PERCENT DISCREPANCY =           0.03     PERCENT DISCREPANCY =           0.37






         TIME SUMMARY AT END OF TIME STEP  128 IN STRESS PERIOD    1
                    SECONDS     MINUTES      HOURS       DAYS        YEARS
                    -----------------------------------------------------------
   TIME STEP LENGTH  86400.      1440.0      24.000      1.0000     2.73785E-03
 STRESS PERIOD TIME 1.10592E+07 1.84320E+05  3072.0      128.00     0.35044    
         TOTAL TIME 1.10592E+07 1.84320E+05  3072.0      128.00     0.35044    
1
 
 SOLVING FOR HEAD 
                                                   Max.-Head-Change                        Max.-Flux-Residual
  Residual-Control   Outer-Iter.   Inner-Iter.     Column Row Layer    Max.-Head-Change    Column Row Layer    Max.-Flux-Residual            L2-New               L2-Old           Solver-Max-Delh
          0                 1           2            40   20     1       0.1603416331E+00      39   16    1      -0.3778528489E+03      0.2414994145E+04      0.1212577569E+02      0.1603416331E+00
          0                 2           2            40   20     1      -0.1384803836E-01      39   16    1       0.3776445206E+02      0.2414402040E+03      0.2414994145E+04     -0.1384803836E-01

    ------------------------------------------------
       NWT REQUIRED            2 OUTER ITERATIONS 
       AND A TOTAL OF          4 INNER ITERATIONS.
    ------------------------------------------------

 OUTPUT CONTROL FOR STRESS PERIOD    1   TIME STEP  129
    SAVE HEAD FOR ALL LAYERS
    SAVE DRAWDOWN FOR ALL LAYERS
    SAVE BUDGET
    PRINT BUDGET
 UBDSV1 SAVING "         STORAGE" ON UNIT   9 AT TIME STEP129, STRESS PERIOD   1
 UBDSV2 SAVING "   CONSTANT HEAD" ON UNIT   9 AT TIME STEP129, STRESS PERIOD   1
 UBDSV1 SAVING "FLOW RIGHT FACE " ON UNIT   9 AT TIME STEP129, STRESS PERIOD   1
 UBDSV1 SAVING "FLOW FRONT FACE " ON UNIT   9 AT TIME STEP129, STRESS PERIOD   1
 UBDSV4 SAVING "   RIVER LEAKAGE" ON UNIT   9 AT TIME STEP129, STRESS PERIOD   1
 UBDSV3 SAVING "        RECHARGE" ON UNIT   9 AT TIME STEP129, STRESS PERIOD   1

 HEAD WILL BE SAVED ON UNIT 5037 AT END OF TIME STEP  129, STRESS PERIOD    1

 DRAWDOWN WILL BE SAVED ON UNIT   38 AT END OF TIME STEP  129, STRESS PERIOD    1
1
  VOLUMETRIC BUDGET FOR ENTIRE MODEL AT END OF TIME STEP  129, STRESS PERIOD   1
  ------------------------------------------------------------------------------

     CUMULATIVE VOLUMES      L**3       RATES FOR THIS TIME STEP      L**3/T
     ------------------                 ------------------------

           IN:                                      IN:
           ---                                      ---
             STORAGE =     6759309.0000               STORAGE =       31418.1699
       CONSTANT HEAD =           0.0000         CONSTANT HEAD =           0.0000
       RIVER LEAKAGE =      760072.8125         RIVER LEAKAGE =        5617.1343
            RECHARGE =     3121685.7500              RECHARGE =         338.2558

            TOTAL IN =    10641068.0000              TOTAL IN =       37373.5586

          OUT:                                     OUT:
          ----                                     ----
             STORAGE =     4852124.5000               STORAGE =        3955.9871
       CONSTANT HEAD =           0.0000         CONSTANT HEAD =           0.0000
       RIVER LEAKAGE =     5786066.5000         RIVER LEAKAGE =       33280.6836
            RECHARGE =           0.0000              RECHARGE =           0.0000

           TOTAL OUT =    10638191.0000             TOTAL OUT =       37236.6719

            IN - OUT =        2877.0000              IN - OUT =         136.8867

 PERCENT DISCREPANCY =           0.03     PERCENT DISCREPANCY =           0.37






         TIME SUMMARY AT END OF TIME STEP  129 IN STRESS PERIOD    1
                    SECONDS     MINUTES      HOURS       DAYS        YEARS
                    -----------------------------------------------------------
   TIME STEP LENGTH  86400.      1440.0      24.000      1.0000     2.73785E-03
 STRESS PERIOD TIME 1.11456E+07 1.85760E+05  3096.0      129.00     0.35318    
         TOTAL TIME 1.11456E+07 1.85760E+05  3096.0      129.00     0.35318    
1
 
 SOLVING FOR HEAD 
                                                   Max.-Head-Change                        Max.-Flux-Residual
  Residual-Control   Outer-Iter.   Inner-Iter.     Column Row Layer    Max.-Head-Change    Column Row Layer    Max.-Flux-Residual            L2-New               L2-Old           Solver-Max-Delh
          0                 1           2            40   20     1       0.1505167358E+00      39   16    1      -0.3748354505E+03      0.2404243747E+04      0.1207155600E+02      0.1505167358E+00
          0                 2           2            40   20     1      -0.1299948887E-01      39   16    1       0.3746307443E+02      0.2403650155E+03      0.2404243747E+04     -0.1299948887E-01

    ------------------------------------------------
       NWT REQUIRED            2 OUTER ITERATIONS 
       AND A TOTAL OF          4 INNER ITERATIONS.
    ------------------------------------------------

 OUTPUT CONTROL FOR STRESS PERIOD    1   TIME STEP  130
    SAVE HEAD FOR ALL LAYERS
    SAVE DRAWDOWN FOR ALL LAYERS
    SAVE BUDGET
    PRINT BUDGET
 UBDSV1 SAVING "         STORAGE" ON UNIT   9 AT TIME STEP130, STRESS PERIOD   1
 UBDSV2 SAVING "   CONSTANT HEAD" ON UNIT   9 AT TIME STEP130, STRESS PERIOD   1
 UBDSV1 SAVING "FLOW RIGHT FACE " ON UNIT   9 AT TIME STEP130, STRESS PERIOD   1
 UBDSV1 SAVING "FLOW FRONT FACE " ON UNIT   9 AT TIME STEP130, STRESS PERIOD   1
 UBDSV4 SAVING "   RIVER LEAKAGE" ON UNIT   9 AT TIME STEP130, STRESS PERIOD   1
 UBDSV3 SAVING "        RECHARGE" ON UNIT   9 AT TIME STEP130, STRESS PERIOD   1

 HEAD WILL BE SAVED ON UNIT 5037 AT END OF TIME STEP  130, STRESS PERIOD    1

 DRAWDOWN WILL BE SAVED ON UNIT   38 AT END OF TIME STEP  130, STRESS PERIOD    1
1
  VOLUMETRIC BUDGET FOR ENTIRE MODEL AT END OF TIME STEP  130, STRESS PERIOD   1
  ------------------------------------------------------------------------------

     CUMULATIVE VOLUMES      L**3       RATES FOR THIS TIME STEP      L**3/T
     ------------------                 ------------------------

           IN:                                      IN:
           ---                                      ---
             STORAGE =     6790622.0000               STORAGE =       31313.0566
       CONSTANT HEAD =           0.0000         CONSTANT HEAD =           0.0000
       RIVER LEAKAGE =      765696.8125         RIVER LEAKAGE =        5623.9941
            RECHARGE =     3122014.7500              RECHARGE =         328.9848

            TOTAL IN =    10678334.0000              TOTAL IN =       37266.0352

          OUT:                                     OUT:
          ----                                     ----
             STORAGE =     4856027.0000               STORAGE =        3902.7312
       CONSTANT HEAD =           0.0000         CONSTANT HEAD =           0.0000
       RIVER LEAKAGE =     5819293.0000         RIVER LEAKAGE =       33226.6680
            RECHARGE =           0.0000              RECHARGE =           0.0000

           TOTAL OUT =    10675320.0000             TOTAL OUT =       37129.3984

            IN - OUT =        3014.0000              IN - OUT =         136.6367

 PERCENT DISCREPANCY =           0.03     PERCENT DISCREPANCY =           0.37






         TIME SUMMARY AT END OF TIME STEP  130 IN STRESS PERIOD    1
                    SECONDS     MINUTES      HOURS       DAYS        YEARS
                    -----------------------------------------------------------
   TIME STEP LENGTH  86400.      1440.0      24.000      1.0000     2.73785E-03
 STRESS PERIOD TIME 1.12320E+07 1.87200E+05  3120.0      130.00     0.35592    
         TOTAL TIME 1.12320E+07 1.87200E+05  3120.0      130.00     0.35592    
1
 
 SOLVING FOR HEAD 
                                                   Max.-Head-Change                        Max.-Flux-Residual
  Residual-Control   Outer-Iter.   Inner-Iter.     Column Row Layer    Max.-Head-Change    Column Row Layer    Max.-Flux-Residual            L2-New               L2-Old           Solver-Max-Delh
          0                 1           2            40   21     1       0.1433823316E+00      39   16    1      -0.3718688483E+03      0.2393604229E+04      0.1201780219E+02      0.1433823316E+00
          0                 2           2            40   21     1      -0.1238327699E-01      39   16    1       0.3716676178E+02      0.2393017921E+03      0.2393604229E+04     -0.1238327699E-01

    ------------------------------------------------
       NWT REQUIRED            2 OUTER ITERATIONS 
       AND A TOTAL OF          4 INNER ITERATIONS.
    ------------------------------------------------

 OUTPUT CONTROL FOR STRESS PERIOD    1   TIME STEP  131
    SAVE HEAD FOR ALL LAYERS
    SAVE DRAWDOWN FOR ALL LAYERS
    SAVE BUDGET
    PRINT BUDGET
 UBDSV1 SAVING "         STORAGE" ON UNIT   9 AT TIME STEP131, STRESS PERIOD   1
 UBDSV2 SAVING "   CONSTANT HEAD" ON UNIT   9 AT TIME STEP131, STRESS PERIOD   1
 UBDSV1 SAVING "FLOW RIGHT FACE " ON UNIT   9 AT TIME STEP131, STRESS PERIOD   1
 UBDSV1 SAVING "FLOW FRONT FACE " ON UNIT   9 AT TIME STEP131, STRESS PERIOD   1
 UBDSV4 SAVING "   RIVER LEAKAGE" ON UNIT   9 AT TIME STEP131, STRESS PERIOD   1
 UBDSV3 SAVING "        RECHARGE" ON UNIT   9 AT TIME STEP131, STRESS PERIOD   1

 HEAD WILL BE SAVED ON UNIT 5037 AT END OF TIME STEP  131, STRESS PERIOD    1

 DRAWDOWN WILL BE SAVED ON UNIT   38 AT END OF TIME STEP  131, STRESS PERIOD    1
1
  VOLUMETRIC BUDGET FOR ENTIRE MODEL AT END OF TIME STEP  131, STRESS PERIOD   1
  ------------------------------------------------------------------------------

     CUMULATIVE VOLUMES      L**3       RATES FOR THIS TIME STEP      L**3/T
     ------------------                 ------------------------

           IN:                                      IN:
           ---                                      ---
             STORAGE =     6821833.0000               STORAGE =       31210.7500
       CONSTANT HEAD =           0.0000         CONSTANT HEAD =           0.0000
       RIVER LEAKAGE =      771327.6250         RIVER LEAKAGE =        5630.8369
            RECHARGE =     3122335.0000              RECHARGE =         320.1301

            TOTAL IN =    10715496.0000              TOTAL IN =       37161.7148

          OUT:                                     OUT:
          ----                                     ----
             STORAGE =     4859879.5000               STORAGE =        3852.4189
       CONSTANT HEAD =           0.0000         CONSTANT HEAD =           0.0000
       RIVER LEAKAGE =     5852466.0000         RIVER LEAKAGE =       33172.9219
            RECHARGE =           0.0000              RECHARGE =           0.0000

           TOTAL OUT =    10712346.0000             TOTAL OUT =       37025.3398

            IN - OUT =        3150.0000              IN - OUT =         136.3750

 PERCENT DISCREPANCY =           0.03     PERCENT DISCREPANCY =           0.37






         TIME SUMMARY AT END OF TIME STEP  131 IN STRESS PERIOD    1
                    SECONDS     MINUTES      HOURS       DAYS        YEARS
                    -----------------------------------------------------------
   TIME STEP LENGTH  86400.      1440.0      24.000      1.0000     2.73785E-03
 STRESS PERIOD TIME 1.13184E+07 1.88640E+05  3144.0      131.00     0.35866    
         TOTAL TIME 1.13184E+07 1.88640E+05  3144.0      131.00     0.35866    
1
 
 SOLVING FOR HEAD 
                                                   Max.-Head-Change                        Max.-Flux-Residual
  Residual-Control   Outer-Iter.   Inner-Iter.     Column Row Layer    Max.-Head-Change    Column Row Layer    Max.-Flux-Residual            L2-New               L2-Old           Solver-Max-Delh
          0                 1           2            40   21     1       0.1363094585E+00      39   16    1      -0.3689481601E+03      0.2383073371E+04      0.1196464647E+02      0.1363094585E+00
          0                 2           2            40   21     1      -0.1177241941E-01      39   16    1       0.3687502816E+02      0.2382494971E+03      0.2383073371E+04     -0.1177241941E-01

    ------------------------------------------------
       NWT REQUIRED            2 OUTER ITERATIONS 
       AND A TOTAL OF          4 INNER ITERATIONS.
    ------------------------------------------------

 OUTPUT CONTROL FOR STRESS PERIOD    1   TIME STEP  132
    SAVE HEAD FOR ALL LAYERS
    SAVE DRAWDOWN FOR ALL LAYERS
    SAVE BUDGET
    PRINT BUDGET
 UBDSV1 SAVING "         STORAGE" ON UNIT   9 AT TIME STEP132, STRESS PERIOD   1
 UBDSV2 SAVING "   CONSTANT HEAD" ON UNIT   9 AT TIME STEP132, STRESS PERIOD   1
 UBDSV1 SAVING "FLOW RIGHT FACE " ON UNIT   9 AT TIME STEP132, STRESS PERIOD   1
 UBDSV1 SAVING "FLOW FRONT FACE " ON UNIT   9 AT TIME STEP132, STRESS PERIOD   1
 UBDSV4 SAVING "   RIVER LEAKAGE" ON UNIT   9 AT TIME STEP132, STRESS PERIOD   1
 UBDSV3 SAVING "        RECHARGE" ON UNIT   9 AT TIME STEP132, STRESS PERIOD   1

 HEAD WILL BE SAVED ON UNIT 5037 AT END OF TIME STEP  132, STRESS PERIOD    1

 DRAWDOWN WILL BE SAVED ON UNIT   38 AT END OF TIME STEP  132, STRESS PERIOD    1
1
  VOLUMETRIC BUDGET FOR ENTIRE MODEL AT END OF TIME STEP  132, STRESS PERIOD   1
  ------------------------------------------------------------------------------

     CUMULATIVE VOLUMES      L**3       RATES FOR THIS TIME STEP      L**3/T
     ------------------                 ------------------------

           IN:                                      IN:
           ---                                      ---
             STORAGE =     6852942.5000               STORAGE =       31109.7285
       CONSTANT HEAD =           0.0000         CONSTANT HEAD =           0.0000
       RIVER LEAKAGE =      776965.2500         RIVER LEAKAGE =        5637.6455
            RECHARGE =     3122646.7500              RECHARGE =         311.6672

            TOTAL IN =    10752555.0000              TOTAL IN =       37059.0430

          OUT:                                     OUT:
          ----                                     ----
             STORAGE =     4863683.0000               STORAGE =        3803.4792
       CONSTANT HEAD =           0.0000         CONSTANT HEAD =           0.0000
       RIVER LEAKAGE =     5885585.5000         RIVER LEAKAGE =       33119.4453
            RECHARGE =           0.0000              RECHARGE =           0.0000

           TOTAL OUT =    10749268.0000             TOTAL OUT =       36922.9258

            IN - OUT =        3287.0000              IN - OUT =         136.1172

 PERCENT DISCREPANCY =           0.03     PERCENT DISCREPANCY =           0.37






         TIME SUMMARY AT END OF TIME STEP  132 IN STRESS PERIOD    1
                    SECONDS     MINUTES      HOURS       DAYS        YEARS
                    -----------------------------------------------------------
   TIME STEP LENGTH  86400.      1440.0      24.000      1.0000     2.73785E-03
 STRESS PERIOD TIME 1.14048E+07 1.90080E+05  3168.0      132.00     0.36140    
         TOTAL TIME 1.14048E+07 1.90080E+05  3168.0      132.00     0.36140    
1
 
 SOLVING FOR HEAD 
                                                   Max.-Head-Change                        Max.-Flux-Residual
  Residual-Control   Outer-Iter.   Inner-Iter.     Column Row Layer    Max.-Head-Change    Column Row Layer    Max.-Flux-Residual            L2-New               L2-Old           Solver-Max-Delh
          0                 1           2            40   21     1       0.1293237114E+00      39   16    1      -0.3660726026E+03      0.2372646724E+04      0.1191203705E+02      0.1293237114E+00
          0                 2           2            40   21     1      -0.1116908787E-01      39   16    1       0.3658779659E+02      0.2372074452E+03      0.2372646724E+04     -0.1116908787E-01

    ------------------------------------------------
       NWT REQUIRED            2 OUTER ITERATIONS 
       AND A TOTAL OF          4 INNER ITERATIONS.
    ------------------------------------------------

 OUTPUT CONTROL FOR STRESS PERIOD    1   TIME STEP  133
    SAVE HEAD FOR ALL LAYERS
    SAVE DRAWDOWN FOR ALL LAYERS
    SAVE BUDGET
    PRINT BUDGET
 UBDSV1 SAVING "         STORAGE" ON UNIT   9 AT TIME STEP133, STRESS PERIOD   1
 UBDSV2 SAVING "   CONSTANT HEAD" ON UNIT   9 AT TIME STEP133, STRESS PERIOD   1
 UBDSV1 SAVING "FLOW RIGHT FACE " ON UNIT   9 AT TIME STEP133, STRESS PERIOD   1
 UBDSV1 SAVING "FLOW FRONT FACE " ON UNIT   9 AT TIME STEP133, STRESS PERIOD   1
 UBDSV4 SAVING "   RIVER LEAKAGE" ON UNIT   9 AT TIME STEP133, STRESS PERIOD   1
 UBDSV3 SAVING "        RECHARGE" ON UNIT   9 AT TIME STEP133, STRESS PERIOD   1

 HEAD WILL BE SAVED ON UNIT 5037 AT END OF TIME STEP  133, STRESS PERIOD    1

 DRAWDOWN WILL BE SAVED ON UNIT   38 AT END OF TIME STEP  133, STRESS PERIOD    1
1
  VOLUMETRIC BUDGET FOR ENTIRE MODEL AT END OF TIME STEP  133, STRESS PERIOD   1
  ------------------------------------------------------------------------------

     CUMULATIVE VOLUMES      L**3       RATES FOR THIS TIME STEP      L**3/T
     ------------------                 ------------------------

           IN:                                      IN:
           ---                                      ---
             STORAGE =     6883952.5000               STORAGE =       31009.9668
       CONSTANT HEAD =           0.0000         CONSTANT HEAD =           0.0000
       RIVER LEAKAGE =      782609.8750         RIVER LEAKAGE =        5644.6465
            RECHARGE =     3122950.2500              RECHARGE =         303.5733

            TOTAL IN =    10789513.0000              TOTAL IN =       36958.1875

          OUT:                                     OUT:
          ----                                     ----
             STORAGE =     4867439.0000               STORAGE =        3755.8596
       CONSTANT HEAD =           0.0000         CONSTANT HEAD =           0.0000
       RIVER LEAKAGE =     5918652.0000         RIVER LEAKAGE =       33066.4727
            RECHARGE =           0.0000              RECHARGE =           0.0000

           TOTAL OUT =    10786091.0000             TOTAL OUT =       36822.3320

            IN - OUT =        3422.0000              IN - OUT =         135.8555

 PERCENT DISCREPANCY =           0.03     PERCENT DISCREPANCY =           0.37






         TIME SUMMARY AT END OF TIME STEP  133 IN STRESS PERIOD    1
                    SECONDS     MINUTES      HOURS       DAYS        YEARS
                    -----------------------------------------------------------
   TIME STEP LENGTH  86400.      1440.0      24.000      1.0000     2.73785E-03
 STRESS PERIOD TIME 1.14912E+07 1.91520E+05  3192.0      133.00     0.36413    
         TOTAL TIME 1.14912E+07 1.91520E+05  3192.0      133.00     0.36413    
1
 
 SOLVING FOR HEAD 
                                                   Max.-Head-Change                        Max.-Flux-Residual
  Residual-Control   Outer-Iter.   Inner-Iter.     Column Row Layer    Max.-Head-Change    Column Row Layer    Max.-Flux-Residual            L2-New               L2-Old           Solver-Max-Delh
          0                 1           2            40   21     1       0.1225284775E+00      39   16    1      -0.3632387928E+03      0.2362329495E+04      0.1185993964E+02      0.1225284775E+00
          0                 2           2            40   21     1      -0.1058221112E-01      39   16    1       0.3630472974E+02      0.2361763978E+03      0.2362329495E+04     -0.1058221112E-01

    ------------------------------------------------
       NWT REQUIRED            2 OUTER ITERATIONS 
       AND A TOTAL OF          4 INNER ITERATIONS.
    ------------------------------------------------

 OUTPUT CONTROL FOR STRESS PERIOD    1   TIME STEP  134
    SAVE HEAD FOR ALL LAYERS
    SAVE DRAWDOWN FOR ALL LAYERS
    SAVE BUDGET
    PRINT BUDGET
 UBDSV1 SAVING "         STORAGE" ON UNIT   9 AT TIME STEP134, STRESS PERIOD   1
 UBDSV2 SAVING "   CONSTANT HEAD" ON UNIT   9 AT TIME STEP134, STRESS PERIOD   1
 UBDSV1 SAVING "FLOW RIGHT FACE " ON UNIT   9 AT TIME STEP134, STRESS PERIOD   1
 UBDSV1 SAVING "FLOW FRONT FACE " ON UNIT   9 AT TIME STEP134, STRESS PERIOD   1
 UBDSV4 SAVING "   RIVER LEAKAGE" ON UNIT   9 AT TIME STEP134, STRESS PERIOD   1
 UBDSV3 SAVING "        RECHARGE" ON UNIT   9 AT TIME STEP134, STRESS PERIOD   1

 HEAD WILL BE SAVED ON UNIT 5037 AT END OF TIME STEP  134, STRESS PERIOD    1

 DRAWDOWN WILL BE SAVED ON UNIT   38 AT END OF TIME STEP  134, STRESS PERIOD    1
1
  VOLUMETRIC BUDGET FOR ENTIRE MODEL AT END OF TIME STEP  134, STRESS PERIOD   1
  ------------------------------------------------------------------------------

     CUMULATIVE VOLUMES      L**3       RATES FOR THIS TIME STEP      L**3/T
     ------------------                 ------------------------

           IN:                                      IN:
           ---                                      ---
             STORAGE =     6914866.0000               STORAGE =       30913.5000
       CONSTANT HEAD =           0.0000         CONSTANT HEAD =           0.0000
       RIVER LEAKAGE =      788262.3750         RIVER LEAKAGE =        5652.5186
            RECHARGE =     3123246.0000              RECHARGE =         295.8270

            TOTAL IN =    10826374.0000              TOTAL IN =       36861.8477

          OUT:                                     OUT:
          ----                                     ----
             STORAGE =     4871150.5000               STORAGE =        3711.5674
       CONSTANT HEAD =           0.0000         CONSTANT HEAD =           0.0000
       RIVER LEAKAGE =     5951666.5000         RIVER LEAKAGE =       33014.6836
            RECHARGE =           0.0000              RECHARGE =           0.0000

           TOTAL OUT =    10822817.0000             TOTAL OUT =       36726.2500

            IN - OUT =        3557.0000              IN - OUT =         135.5977

 PERCENT DISCREPANCY =           0.03     PERCENT DISCREPANCY =           0.37






         TIME SUMMARY AT END OF TIME STEP  134 IN STRESS PERIOD    1
                    SECONDS     MINUTES      HOURS       DAYS        YEARS
                    -----------------------------------------------------------
   TIME STEP LENGTH  86400.      1440.0      24.000      1.0000     2.73785E-03
 STRESS PERIOD TIME 1.15776E+07 1.92960E+05  3216.0      134.00     0.36687    
         TOTAL TIME 1.15776E+07 1.92960E+05  3216.0      134.00     0.36687    
1
 
 SOLVING FOR HEAD 
                                                   Max.-Head-Change                        Max.-Flux-Residual
  Residual-Control   Outer-Iter.   Inner-Iter.     Column Row Layer    Max.-Head-Change    Column Row Layer    Max.-Flux-Residual            L2-New               L2-Old           Solver-Max-Delh
          0                 1           2            40   21     1       0.1159374951E+00      39   16    1      -0.3604436732E+03      0.2352112127E+04      0.1180839233E+02      0.1159374951E+00
          0                 2           2            40   21     1      -0.1001297539E-01      39   16    1       0.3602552336E+02      0.2351557356E+03      0.2352112127E+04     -0.1001297539E-01

    ------------------------------------------------
       NWT REQUIRED            2 OUTER ITERATIONS 
       AND A TOTAL OF          4 INNER ITERATIONS.
    ------------------------------------------------

 OUTPUT CONTROL FOR STRESS PERIOD    1   TIME STEP  135
    SAVE HEAD FOR ALL LAYERS
    SAVE DRAWDOWN FOR ALL LAYERS
    SAVE BUDGET
    PRINT BUDGET
 UBDSV1 SAVING "         STORAGE" ON UNIT   9 AT TIME STEP135, STRESS PERIOD   1
 UBDSV2 SAVING "   CONSTANT HEAD" ON UNIT   9 AT TIME STEP135, STRESS PERIOD   1
 UBDSV1 SAVING "FLOW RIGHT FACE " ON UNIT   9 AT TIME STEP135, STRESS PERIOD   1
 UBDSV1 SAVING "FLOW FRONT FACE " ON UNIT   9 AT TIME STEP135, STRESS PERIOD   1
 UBDSV4 SAVING "   RIVER LEAKAGE" ON UNIT   9 AT TIME STEP135, STRESS PERIOD   1
 UBDSV3 SAVING "        RECHARGE" ON UNIT   9 AT TIME STEP135, STRESS PERIOD   1

 HEAD WILL BE SAVED ON UNIT 5037 AT END OF TIME STEP  135, STRESS PERIOD    1

 DRAWDOWN WILL BE SAVED ON UNIT   38 AT END OF TIME STEP  135, STRESS PERIOD    1
1
  VOLUMETRIC BUDGET FOR ENTIRE MODEL AT END OF TIME STEP  135, STRESS PERIOD   1
  ------------------------------------------------------------------------------

     CUMULATIVE VOLUMES      L**3       RATES FOR THIS TIME STEP      L**3/T
     ------------------                 ------------------------

           IN:                                      IN:
           ---                                      ---
             STORAGE =     6945684.0000               STORAGE =       30818.1621
       CONSTANT HEAD =           0.0000         CONSTANT HEAD =           0.0000
       RIVER LEAKAGE =      793922.7500         RIVER LEAKAGE =        5660.3511
            RECHARGE =     3123534.5000              RECHARGE =         288.4086

            TOTAL IN =    10863142.0000              TOTAL IN =       36766.9219

          OUT:                                     OUT:
          ----                                     ----
             STORAGE =     4874819.0000               STORAGE =        3668.4153
       CONSTANT HEAD =           0.0000         CONSTANT HEAD =           0.0000
       RIVER LEAKAGE =     5984629.5000         RIVER LEAKAGE =       32963.1719
            RECHARGE =           0.0000              RECHARGE =           0.0000

           TOTAL OUT =    10859448.0000             TOTAL OUT =       36631.5859

            IN - OUT =        3694.0000              IN - OUT =         135.3359

 PERCENT DISCREPANCY =           0.03     PERCENT DISCREPANCY =           0.37






         TIME SUMMARY AT END OF TIME STEP  135 IN STRESS PERIOD    1
                    SECONDS     MINUTES      HOURS       DAYS        YEARS
                    -----------------------------------------------------------
   TIME STEP LENGTH  86400.      1440.0      24.000      1.0000     2.73785E-03
 STRESS PERIOD TIME 1.16640E+07 1.94400E+05  3240.0      135.00     0.36961    
         TOTAL TIME 1.16640E+07 1.94400E+05  3240.0      135.00     0.36961    
1
 
 SOLVING FOR HEAD 
                                                   Max.-Head-Change                        Max.-Flux-Residual
  Residual-Control   Outer-Iter.   Inner-Iter.     Column Row Layer    Max.-Head-Change    Column Row Layer    Max.-Flux-Residual            L2-New               L2-Old           Solver-Max-Delh
          0                 1           2            40   21     1       0.1096124902E+00      39   16    1      -0.3576848321E+03      0.2341992946E+04      0.1175736447E+02      0.1096124902E+00
          0                 2           2            40   21     1      -0.9466711508E-02      39   16    1       0.3574993669E+02      0.2340715461E+03      0.2341992946E+04     -0.9466711508E-02

    ------------------------------------------------
       NWT REQUIRED            2 OUTER ITERATIONS 
       AND A TOTAL OF          4 INNER ITERATIONS.
    ------------------------------------------------

 OUTPUT CONTROL FOR STRESS PERIOD    1   TIME STEP  136
    SAVE HEAD FOR ALL LAYERS
    SAVE DRAWDOWN FOR ALL LAYERS
    SAVE BUDGET
    PRINT BUDGET
 UBDSV1 SAVING "         STORAGE" ON UNIT   9 AT TIME STEP136, STRESS PERIOD   1
 UBDSV2 SAVING "   CONSTANT HEAD" ON UNIT   9 AT TIME STEP136, STRESS PERIOD   1
 UBDSV1 SAVING "FLOW RIGHT FACE " ON UNIT   9 AT TIME STEP136, STRESS PERIOD   1
 UBDSV1 SAVING "FLOW FRONT FACE " ON UNIT   9 AT TIME STEP136, STRESS PERIOD   1
 UBDSV4 SAVING "   RIVER LEAKAGE" ON UNIT   9 AT TIME STEP136, STRESS PERIOD   1
 UBDSV3 SAVING "        RECHARGE" ON UNIT   9 AT TIME STEP136, STRESS PERIOD   1

 HEAD WILL BE SAVED ON UNIT 5037 AT END OF TIME STEP  136, STRESS PERIOD    1

 DRAWDOWN WILL BE SAVED ON UNIT   38 AT END OF TIME STEP  136, STRESS PERIOD    1
1
  VOLUMETRIC BUDGET FOR ENTIRE MODEL AT END OF TIME STEP  136, STRESS PERIOD   1
  ------------------------------------------------------------------------------

     CUMULATIVE VOLUMES      L**3       RATES FOR THIS TIME STEP      L**3/T
     ------------------                 ------------------------

           IN:                                      IN:
           ---                                      ---
             STORAGE =     6976408.0000               STORAGE =       30724.0625
       CONSTANT HEAD =           0.0000         CONSTANT HEAD =           0.0000
       RIVER LEAKAGE =      799590.8750         RIVER LEAKAGE =        5668.1338
            RECHARGE =     3123815.7500              RECHARGE =         281.2996

            TOTAL IN =    10899815.0000              TOTAL IN =       36673.4961

          OUT:                                     OUT:
          ----                                     ----
             STORAGE =     4878423.5000               STORAGE =        3604.5876
       CONSTANT HEAD =           0.0000         CONSTANT HEAD =           0.0000
       RIVER LEAKAGE =     6017541.5000         RIVER LEAKAGE =       32911.9570
            RECHARGE =           0.0000              RECHARGE =           0.0000

           TOTAL OUT =    10895965.0000             TOTAL OUT =       36516.5430

            IN - OUT =        3850.0000              IN - OUT =         156.9531

 PERCENT DISCREPANCY =           0.04     PERCENT DISCREPANCY =           0.43






         TIME SUMMARY AT END OF TIME STEP  136 IN STRESS PERIOD    1
                    SECONDS     MINUTES      HOURS       DAYS        YEARS
                    -----------------------------------------------------------
   TIME STEP LENGTH  86400.      1440.0      24.000      1.0000     2.73785E-03
 STRESS PERIOD TIME 1.17504E+07 1.95840E+05  3264.0      136.00     0.37235    
         TOTAL TIME 1.17504E+07 1.95840E+05  3264.0      136.00     0.37235    
1
 
 SOLVING FOR HEAD 
                                                   Max.-Head-Change                        Max.-Flux-Residual
  Residual-Control   Outer-Iter.   Inner-Iter.     Column Row Layer    Max.-Head-Change    Column Row Layer    Max.-Flux-Residual            L2-New               L2-Old           Solver-Max-Delh
          0                 1           2            40   21     1       0.1035616019E+00      39   16    1      -0.3549631336E+03      0.2331983702E+04      0.2456332681E+02      0.1035616019E+00
          0                 2           2            39   12     1       0.1228158024E+00      39   16    1       0.3547805757E+02      0.2357082260E+03      0.2331983702E+04      0.1228158024E+00
          0                 3           2            39   12     1      -0.1060716008E-01      39   12    1      -0.3520079035E+01      0.1219305739E+02      0.2357082260E+03     -0.1060716008E-01

    ------------------------------------------------
       NWT REQUIRED            3 OUTER ITERATIONS 
       AND A TOTAL OF          6 INNER ITERATIONS.
    ------------------------------------------------

 OUTPUT CONTROL FOR STRESS PERIOD    1   TIME STEP  137
    SAVE HEAD FOR ALL LAYERS
    SAVE DRAWDOWN FOR ALL LAYERS
    SAVE BUDGET
    PRINT BUDGET
 UBDSV1 SAVING "         STORAGE" ON UNIT   9 AT TIME STEP137, STRESS PERIOD   1
 UBDSV2 SAVING "   CONSTANT HEAD" ON UNIT   9 AT TIME STEP137, STRESS PERIOD   1
 UBDSV1 SAVING "FLOW RIGHT FACE " ON UNIT   9 AT TIME STEP137, STRESS PERIOD   1
 UBDSV1 SAVING "FLOW FRONT FACE " ON UNIT   9 AT TIME STEP137, STRESS PERIOD   1
 UBDSV4 SAVING "   RIVER LEAKAGE" ON UNIT   9 AT TIME STEP137, STRESS PERIOD   1
 UBDSV3 SAVING "        RECHARGE" ON UNIT   9 AT TIME STEP137, STRESS PERIOD   1

 HEAD WILL BE SAVED ON UNIT 5037 AT END OF TIME STEP  137, STRESS PERIOD    1

 DRAWDOWN WILL BE SAVED ON UNIT   38 AT END OF TIME STEP  137, STRESS PERIOD    1
1
  VOLUMETRIC BUDGET FOR ENTIRE MODEL AT END OF TIME STEP  137, STRESS PERIOD   1
  ------------------------------------------------------------------------------

     CUMULATIVE VOLUMES      L**3       RATES FOR THIS TIME STEP      L**3/T
     ------------------                 ------------------------

           IN:                                      IN:
           ---                                      ---
             STORAGE =     7006889.0000               STORAGE =       30481.0410
       CONSTANT HEAD =           0.0000         CONSTANT HEAD =           0.0000
       RIVER LEAKAGE =      805266.6875         RIVER LEAKAGE =        5675.8354
            RECHARGE =     3124090.2500              RECHARGE =         274.4827

            TOTAL IN =    10936246.0000              TOTAL IN =       36431.3594

          OUT:                                     OUT:
          ----                                     ----
             STORAGE =     4881987.0000               STORAGE =        3563.4177
       CONSTANT HEAD =           0.0000         CONSTANT HEAD =           0.0000
       RIVER LEAKAGE =     6050403.0000         RIVER LEAKAGE =       32861.3008
            RECHARGE =           0.0000              RECHARGE =           0.0000

           TOTAL OUT =    10932390.0000             TOTAL OUT =       36424.7188

            IN - OUT =        3856.0000              IN - OUT =           6.6406

 PERCENT DISCREPANCY =           0.04     PERCENT DISCREPANCY =           0.02






         TIME SUMMARY AT END OF TIME STEP  137 IN STRESS PERIOD    1
                    SECONDS     MINUTES      HOURS       DAYS        YEARS
                    -----------------------------------------------------------
   TIME STEP LENGTH  86400.      1440.0      24.000      1.0000     2.73785E-03
 STRESS PERIOD TIME 1.18368E+07 1.97280E+05  3288.0      137.00     0.37509    
         TOTAL TIME 1.18368E+07 1.97280E+05  3288.0      137.00     0.37509    
1
 
 SOLVING FOR HEAD 
                                                   Max.-Head-Change                        Max.-Flux-Residual
  Residual-Control   Outer-Iter.   Inner-Iter.     Column Row Layer    Max.-Head-Change    Column Row Layer    Max.-Flux-Residual            L2-New               L2-Old           Solver-Max-Delh
          0                 1           2            39   12     1       0.1642594277E+00      39   16    1      -0.3522737927E+03      0.2321841093E+04      0.1219305739E+02      0.1642594277E+00
          0                 2           2            39   12     1      -0.1418467455E-01      39   16    1       0.3520940709E+02      0.2321301243E+03      0.2321841093E+04     -0.1418467455E-01

    ------------------------------------------------
       NWT REQUIRED            2 OUTER ITERATIONS 
       AND A TOTAL OF          4 INNER ITERATIONS.
    ------------------------------------------------

 OUTPUT CONTROL FOR STRESS PERIOD    1   TIME STEP  138
    SAVE HEAD FOR ALL LAYERS
    SAVE DRAWDOWN FOR ALL LAYERS
    SAVE BUDGET
    PRINT BUDGET
 UBDSV1 SAVING "         STORAGE" ON UNIT   9 AT TIME STEP138, STRESS PERIOD   1
 UBDSV2 SAVING "   CONSTANT HEAD" ON UNIT   9 AT TIME STEP138, STRESS PERIOD   1
 UBDSV1 SAVING "FLOW RIGHT FACE " ON UNIT   9 AT TIME STEP138, STRESS PERIOD   1
 UBDSV1 SAVING "FLOW FRONT FACE " ON UNIT   9 AT TIME STEP138, STRESS PERIOD   1
 UBDSV4 SAVING "   RIVER LEAKAGE" ON UNIT   9 AT TIME STEP138, STRESS PERIOD   1
 UBDSV3 SAVING "        RECHARGE" ON UNIT   9 AT TIME STEP138, STRESS PERIOD   1

 HEAD WILL BE SAVED ON UNIT 5037 AT END OF TIME STEP  138, STRESS PERIOD    1

 DRAWDOWN WILL BE SAVED ON UNIT   38 AT END OF TIME STEP  138, STRESS PERIOD    1
1
  VOLUMETRIC BUDGET FOR ENTIRE MODEL AT END OF TIME STEP  138, STRESS PERIOD   1
  ------------------------------------------------------------------------------

     CUMULATIVE VOLUMES      L**3       RATES FOR THIS TIME STEP      L**3/T
     ------------------                 ------------------------

           IN:                                      IN:
           ---                                      ---
             STORAGE =     7037416.0000               STORAGE =       30526.8828
       CONSTANT HEAD =           0.0000         CONSTANT HEAD =           0.0000
       RIVER LEAKAGE =      810950.2500         RIVER LEAKAGE =        5683.5723
            RECHARGE =     3124358.2500              RECHARGE =         267.9418

            TOTAL IN =    10972724.0000              TOTAL IN =       36478.3945

          OUT:                                     OUT:
          ----                                     ----
             STORAGE =     4885520.5000               STORAGE =        3533.3123
       CONSTANT HEAD =           0.0000         CONSTANT HEAD =           0.0000
       RIVER LEAKAGE =     6083213.5000         RIVER LEAKAGE =       32810.5312
            RECHARGE =           0.0000              RECHARGE =           0.0000

           TOTAL OUT =    10968734.0000             TOTAL OUT =       36343.8438

            IN - OUT =        3990.0000              IN - OUT =         134.5508

 PERCENT DISCREPANCY =           0.04     PERCENT DISCREPANCY =           0.37






         TIME SUMMARY AT END OF TIME STEP  138 IN STRESS PERIOD    1
                    SECONDS     MINUTES      HOURS       DAYS        YEARS
                    -----------------------------------------------------------
   TIME STEP LENGTH  86400.      1440.0      24.000      1.0000     2.73785E-03
 STRESS PERIOD TIME 1.19232E+07 1.98720E+05  3312.0      138.00     0.37782    
         TOTAL TIME 1.19232E+07 1.98720E+05  3312.0      138.00     0.37782    
1
 
 SOLVING FOR HEAD 
                                                   Max.-Head-Change                        Max.-Flux-Residual
  Residual-Control   Outer-Iter.   Inner-Iter.     Column Row Layer    Max.-Head-Change    Column Row Layer    Max.-Flux-Residual            L2-New               L2-Old           Solver-Max-Delh
          0                 1           2            39   12     1       0.1172819643E+00      39   16    1      -0.3496180248E+03      0.2311855118E+04      0.1160609788E+02      0.1172819643E+00
          0                 2           2            39   12     1      -0.1012809147E-01      39   16    1       0.3494410777E+02      0.2311275161E+03      0.2311855118E+04     -0.1012809147E-01

    ------------------------------------------------
       NWT REQUIRED            2 OUTER ITERATIONS 
       AND A TOTAL OF          4 INNER ITERATIONS.
    ------------------------------------------------

 OUTPUT CONTROL FOR STRESS PERIOD    1   TIME STEP  139
    SAVE HEAD FOR ALL LAYERS
    SAVE DRAWDOWN FOR ALL LAYERS
    SAVE BUDGET
    PRINT BUDGET
 UBDSV1 SAVING "         STORAGE" ON UNIT   9 AT TIME STEP139, STRESS PERIOD   1
 UBDSV2 SAVING "   CONSTANT HEAD" ON UNIT   9 AT TIME STEP139, STRESS PERIOD   1
 UBDSV1 SAVING "FLOW RIGHT FACE " ON UNIT   9 AT TIME STEP139, STRESS PERIOD   1
 UBDSV1 SAVING "FLOW FRONT FACE " ON UNIT   9 AT TIME STEP139, STRESS PERIOD   1
 UBDSV4 SAVING "   RIVER LEAKAGE" ON UNIT   9 AT TIME STEP139, STRESS PERIOD   1
 UBDSV3 SAVING "        RECHARGE" ON UNIT   9 AT TIME STEP139, STRESS PERIOD   1

 HEAD WILL BE SAVED ON UNIT 5037 AT END OF TIME STEP  139, STRESS PERIOD    1

 DRAWDOWN WILL BE SAVED ON UNIT   38 AT END OF TIME STEP  139, STRESS PERIOD    1
1
  VOLUMETRIC BUDGET FOR ENTIRE MODEL AT END OF TIME STEP  139, STRESS PERIOD   1
  ------------------------------------------------------------------------------

     CUMULATIVE VOLUMES      L**3       RATES FOR THIS TIME STEP      L**3/T
     ------------------                 ------------------------

           IN:                                      IN:
           ---                                      ---
             STORAGE =     7067857.0000               STORAGE =       30440.9707
       CONSTANT HEAD =           0.0000         CONSTANT HEAD =           0.0000
       RIVER LEAKAGE =      816641.5000         RIVER LEAKAGE =        5691.2295
            RECHARGE =     3124620.0000              RECHARGE =         261.6618

            TOTAL IN =    11009118.0000              TOTAL IN =       36393.8594

          OUT:                                     OUT:
          ----                                     ----
             STORAGE =     4888995.5000               STORAGE =        3474.9338
       CONSTANT HEAD =           0.0000         CONSTANT HEAD =           0.0000
       RIVER LEAKAGE =     6115974.0000         RIVER LEAKAGE =       32760.3594
            RECHARGE =           0.0000              RECHARGE =           0.0000

           TOTAL OUT =    11004970.0000             TOTAL OUT =       36235.2930

            IN - OUT =        4148.0000              IN - OUT =         158.5664

 PERCENT DISCREPANCY =           0.04     PERCENT DISCREPANCY =           0.44






         TIME SUMMARY AT END OF TIME STEP  139 IN STRESS PERIOD    1
                    SECONDS     MINUTES      HOURS       DAYS        YEARS
                    -----------------------------------------------------------
   TIME STEP LENGTH  86400.      1440.0      24.000      1.0000     2.73785E-03
 STRESS PERIOD TIME 1.20096E+07 2.00160E+05  3336.0      139.00     0.38056    
         TOTAL TIME 1.20096E+07 2.00160E+05  3336.0      139.00     0.38056    
1
 
 SOLVING FOR HEAD 
                                                   Max.-Head-Change                        Max.-Flux-Residual
  Residual-Control   Outer-Iter.   Inner-Iter.     Column Row Layer    Max.-Head-Change    Column Row Layer    Max.-Flux-Residual            L2-New               L2-Old           Solver-Max-Delh
          0                 1           2            40   21     1       0.8716488188E-01      39   16    1      -0.3469943529E+03      0.2302096584E+04      0.2682453818E+02      0.8716488188E-01
          0                 2           2            40   21     1      -0.7528009083E-02      39   16    1       0.3468201217E+02      0.2301530316E+03      0.2302096584E+04     -0.7528009083E-02

    ------------------------------------------------
       NWT REQUIRED            2 OUTER ITERATIONS 
       AND A TOTAL OF          4 INNER ITERATIONS.
    ------------------------------------------------

 OUTPUT CONTROL FOR STRESS PERIOD    1   TIME STEP  140
    SAVE HEAD FOR ALL LAYERS
    SAVE DRAWDOWN FOR ALL LAYERS
    SAVE BUDGET
    PRINT BUDGET
 UBDSV1 SAVING "         STORAGE" ON UNIT   9 AT TIME STEP140, STRESS PERIOD   1
 UBDSV2 SAVING "   CONSTANT HEAD" ON UNIT   9 AT TIME STEP140, STRESS PERIOD   1
 UBDSV1 SAVING "FLOW RIGHT FACE " ON UNIT   9 AT TIME STEP140, STRESS PERIOD   1
 UBDSV1 SAVING "FLOW FRONT FACE " ON UNIT   9 AT TIME STEP140, STRESS PERIOD   1
 UBDSV4 SAVING "   RIVER LEAKAGE" ON UNIT   9 AT TIME STEP140, STRESS PERIOD   1
 UBDSV3 SAVING "        RECHARGE" ON UNIT   9 AT TIME STEP140, STRESS PERIOD   1

 HEAD WILL BE SAVED ON UNIT 5037 AT END OF TIME STEP  140, STRESS PERIOD    1

 DRAWDOWN WILL BE SAVED ON UNIT   38 AT END OF TIME STEP  140, STRESS PERIOD    1
1
  VOLUMETRIC BUDGET FOR ENTIRE MODEL AT END OF TIME STEP  140, STRESS PERIOD   1
  ------------------------------------------------------------------------------

     CUMULATIVE VOLUMES      L**3       RATES FOR THIS TIME STEP      L**3/T
     ------------------                 ------------------------

           IN:                                      IN:
           ---                                      ---
             STORAGE =     7098197.0000               STORAGE =       30340.0293
       CONSTANT HEAD =           0.0000         CONSTANT HEAD =           0.0000
       RIVER LEAKAGE =      822340.3125         RIVER LEAKAGE =        5698.8037
            RECHARGE =     3124875.7500              RECHARGE =         255.6287

            TOTAL IN =    11045413.0000              TOTAL IN =       36294.4609

          OUT:                                     OUT:
          ----                                     ----
             STORAGE =     4892445.5000               STORAGE =        3449.9033
       CONSTANT HEAD =           0.0000         CONSTANT HEAD =           0.0000
       RIVER LEAKAGE =     6148684.5000         RIVER LEAKAGE =       32710.5234
            RECHARGE =           0.0000              RECHARGE =           0.0000

           TOTAL OUT =    11041130.0000             TOTAL OUT =       36160.4258

            IN - OUT =        4283.0000              IN - OUT =         134.0352

 PERCENT DISCREPANCY =           0.04     PERCENT DISCREPANCY =           0.37






         TIME SUMMARY AT END OF TIME STEP  140 IN STRESS PERIOD    1
                    SECONDS     MINUTES      HOURS       DAYS        YEARS
                    -----------------------------------------------------------
   TIME STEP LENGTH  86400.      1440.0      24.000      1.0000     2.73785E-03
 STRESS PERIOD TIME 1.20960E+07 2.01600E+05  3360.0      140.00     0.38330    
         TOTAL TIME 1.20960E+07 2.01600E+05  3360.0      140.00     0.38330    
1
 
 SOLVING FOR HEAD 
                                                   Max.-Head-Change                        Max.-Flux-Residual
  Residual-Control   Outer-Iter.   Inner-Iter.     Column Row Layer    Max.-Head-Change    Column Row Layer    Max.-Flux-Residual            L2-New               L2-Old           Solver-Max-Delh
          0                 1           2            40   21     1       0.8227365395E-01      39   16    1      -0.3444045190E+03      0.2292483077E+04      0.1150725241E+02      0.8227365395E-01
          0                 2           2            13    2     1       0.3312880049E-01      39   16    1       0.3442329436E+02      0.2292546982E+03      0.2292483077E+04      0.3312880049E-01

    ------------------------------------------------
       NWT REQUIRED            2 OUTER ITERATIONS 
       AND A TOTAL OF          4 INNER ITERATIONS.
    ------------------------------------------------

 OUTPUT CONTROL FOR STRESS PERIOD    1   TIME STEP  141
    SAVE HEAD FOR ALL LAYERS
    SAVE DRAWDOWN FOR ALL LAYERS
    SAVE BUDGET
    PRINT BUDGET
 UBDSV1 SAVING "         STORAGE" ON UNIT   9 AT TIME STEP141, STRESS PERIOD   1
 UBDSV2 SAVING "   CONSTANT HEAD" ON UNIT   9 AT TIME STEP141, STRESS PERIOD   1
 UBDSV1 SAVING "FLOW RIGHT FACE " ON UNIT   9 AT TIME STEP141, STRESS PERIOD   1
 UBDSV1 SAVING "FLOW FRONT FACE " ON UNIT   9 AT TIME STEP141, STRESS PERIOD   1
 UBDSV4 SAVING "   RIVER LEAKAGE" ON UNIT   9 AT TIME STEP141, STRESS PERIOD   1
 UBDSV3 SAVING "        RECHARGE" ON UNIT   9 AT TIME STEP141, STRESS PERIOD   1

 HEAD WILL BE SAVED ON UNIT 5037 AT END OF TIME STEP  141, STRESS PERIOD    1

 DRAWDOWN WILL BE SAVED ON UNIT   38 AT END OF TIME STEP  141, STRESS PERIOD    1
1
  VOLUMETRIC BUDGET FOR ENTIRE MODEL AT END OF TIME STEP  141, STRESS PERIOD   1
  ------------------------------------------------------------------------------

     CUMULATIVE VOLUMES      L**3       RATES FOR THIS TIME STEP      L**3/T
     ------------------                 ------------------------

           IN:                                      IN:
           ---                                      ---
             STORAGE =     7128446.0000               STORAGE =       30249.2305
       CONSTANT HEAD =           0.0000         CONSTANT HEAD =           0.0000
       RIVER LEAKAGE =      828046.6250         RIVER LEAKAGE =        5706.3267
            RECHARGE =     3125125.5000              RECHARGE =         249.8292

            TOTAL IN =    11081618.0000              TOTAL IN =       36205.3867

          OUT:                                     OUT:
          ----                                     ----
             STORAGE =     4895856.5000               STORAGE =        3410.8843
       CONSTANT HEAD =           0.0000         CONSTANT HEAD =           0.0000
       RIVER LEAKAGE =     6181345.5000         RIVER LEAKAGE =       32661.0156
            RECHARGE =           0.0000              RECHARGE =           0.0000

           TOTAL OUT =    11077202.0000             TOTAL OUT =       36071.8984

            IN - OUT =        4416.0000              IN - OUT =         133.4883

 PERCENT DISCREPANCY =           0.04     PERCENT DISCREPANCY =           0.37






         TIME SUMMARY AT END OF TIME STEP  141 IN STRESS PERIOD    1
                    SECONDS     MINUTES      HOURS       DAYS        YEARS
                    -----------------------------------------------------------
   TIME STEP LENGTH  86400.      1440.0      24.000      1.0000     2.73785E-03
 STRESS PERIOD TIME 1.21824E+07 2.03040E+05  3384.0      141.00     0.38604    
         TOTAL TIME 1.21824E+07 2.03040E+05  3384.0      141.00     0.38604    
1
 
 SOLVING FOR HEAD 
                                                   Max.-Head-Change                        Max.-Flux-Residual
  Residual-Control   Outer-Iter.   Inner-Iter.     Column Row Layer    Max.-Head-Change    Column Row Layer    Max.-Flux-Residual            L2-New               L2-Old           Solver-Max-Delh
          0                 1           2            13    2     1       0.8269434804E-01      39   16    1      -0.3418439081E+03      0.2282973152E+04      0.1147399438E+02      0.8269434804E-01
          0                 2           2            13    2     1      -0.7141068223E-02      39   16    1       0.3416749336E+02      0.2282457002E+03      0.2282973152E+04     -0.7141068223E-02

    ------------------------------------------------
       NWT REQUIRED            2 OUTER ITERATIONS 
       AND A TOTAL OF          4 INNER ITERATIONS.
    ------------------------------------------------

 OUTPUT CONTROL FOR STRESS PERIOD    1   TIME STEP  142
    SAVE HEAD FOR ALL LAYERS
    SAVE DRAWDOWN FOR ALL LAYERS
    SAVE BUDGET
    PRINT BUDGET
 UBDSV1 SAVING "         STORAGE" ON UNIT   9 AT TIME STEP142, STRESS PERIOD   1
 UBDSV2 SAVING "   CONSTANT HEAD" ON UNIT   9 AT TIME STEP142, STRESS PERIOD   1
 UBDSV1 SAVING "FLOW RIGHT FACE " ON UNIT   9 AT TIME STEP142, STRESS PERIOD   1
 UBDSV1 SAVING "FLOW FRONT FACE " ON UNIT   9 AT TIME STEP142, STRESS PERIOD   1
 UBDSV4 SAVING "   RIVER LEAKAGE" ON UNIT   9 AT TIME STEP142, STRESS PERIOD   1
 UBDSV3 SAVING "        RECHARGE" ON UNIT   9 AT TIME STEP142, STRESS PERIOD   1

 HEAD WILL BE SAVED ON UNIT 5037 AT END OF TIME STEP  142, STRESS PERIOD    1

 DRAWDOWN WILL BE SAVED ON UNIT   38 AT END OF TIME STEP  142, STRESS PERIOD    1
1
  VOLUMETRIC BUDGET FOR ENTIRE MODEL AT END OF TIME STEP  142, STRESS PERIOD   1
  ------------------------------------------------------------------------------

     CUMULATIVE VOLUMES      L**3       RATES FOR THIS TIME STEP      L**3/T
     ------------------                 ------------------------

           IN:                                      IN:
           ---                                      ---
             STORAGE =     7158604.5000               STORAGE =       30158.5371
       CONSTANT HEAD =           0.0000         CONSTANT HEAD =           0.0000
       RIVER LEAKAGE =      833760.4375         RIVER LEAKAGE =        5713.8047
            RECHARGE =     3125369.7500              RECHARGE =         244.2510

            TOTAL IN =    11117735.0000              TOTAL IN =       36116.5938

          OUT:                                     OUT:
          ----                                     ----
             STORAGE =     4899228.0000               STORAGE =        3371.2722
       CONSTANT HEAD =           0.0000         CONSTANT HEAD =           0.0000
       RIVER LEAKAGE =     6213957.5000         RIVER LEAKAGE =       32611.8027
            RECHARGE =           0.0000              RECHARGE =           0.0000

           TOTAL OUT =    11113186.0000             TOTAL OUT =       35983.0742

            IN - OUT =        4549.0000              IN - OUT =         133.5195

 PERCENT DISCREPANCY =           0.04     PERCENT DISCREPANCY =           0.37






         TIME SUMMARY AT END OF TIME STEP  142 IN STRESS PERIOD    1
                    SECONDS     MINUTES      HOURS       DAYS        YEARS
                    -----------------------------------------------------------
   TIME STEP LENGTH  86400.      1440.0      24.000      1.0000     2.73785E-03
 STRESS PERIOD TIME 1.22688E+07 2.04480E+05  3408.0      142.00     0.38877    
         TOTAL TIME 1.22688E+07 2.04480E+05  3408.0      142.00     0.38877    
1
 
 SOLVING FOR HEAD 
                                                   Max.-Head-Change                        Max.-Flux-Residual
  Residual-Control   Outer-Iter.   Inner-Iter.     Column Row Layer    Max.-Head-Change    Column Row Layer    Max.-Flux-Residual            L2-New               L2-Old           Solver-Max-Delh
          0                 1           2            40   21     1       0.7331617483E-01      39   16    1      -0.3393143392E+03      0.2273569045E+04      0.1141189444E+02      0.7331617483E-01
          0                 2           2            40   21     1      -0.6331957500E-02      39   16    1       0.3391479103E+02      0.2273058463E+03      0.2273569045E+04     -0.6331957500E-02

    ------------------------------------------------
       NWT REQUIRED            2 OUTER ITERATIONS 
       AND A TOTAL OF          4 INNER ITERATIONS.
    ------------------------------------------------

 OUTPUT CONTROL FOR STRESS PERIOD    1   TIME STEP  143
    SAVE HEAD FOR ALL LAYERS
    SAVE DRAWDOWN FOR ALL LAYERS
    SAVE BUDGET
    PRINT BUDGET
 UBDSV1 SAVING "         STORAGE" ON UNIT   9 AT TIME STEP143, STRESS PERIOD   1
 UBDSV2 SAVING "   CONSTANT HEAD" ON UNIT   9 AT TIME STEP143, STRESS PERIOD   1
 UBDSV1 SAVING "FLOW RIGHT FACE " ON UNIT   9 AT TIME STEP143, STRESS PERIOD   1
 UBDSV1 SAVING "FLOW FRONT FACE " ON UNIT   9 AT TIME STEP143, STRESS PERIOD   1
 UBDSV4 SAVING "   RIVER LEAKAGE" ON UNIT   9 AT TIME STEP143, STRESS PERIOD   1
 UBDSV3 SAVING "        RECHARGE" ON UNIT   9 AT TIME STEP143, STRESS PERIOD   1

 HEAD WILL BE SAVED ON UNIT 5037 AT END OF TIME STEP  143, STRESS PERIOD    1

 DRAWDOWN WILL BE SAVED ON UNIT   38 AT END OF TIME STEP  143, STRESS PERIOD    1
1
  VOLUMETRIC BUDGET FOR ENTIRE MODEL AT END OF TIME STEP  143, STRESS PERIOD   1
  ------------------------------------------------------------------------------

     CUMULATIVE VOLUMES      L**3       RATES FOR THIS TIME STEP      L**3/T
     ------------------                 ------------------------

           IN:                                      IN:
           ---                                      ---
             STORAGE =     7188674.5000               STORAGE =       30070.2344
       CONSTANT HEAD =           0.0000         CONSTANT HEAD =           0.0000
       RIVER LEAKAGE =      839481.6875         RIVER LEAKAGE =        5721.2344
            RECHARGE =     3125608.7500              RECHARGE =         238.8825

            TOTAL IN =    11153765.0000              TOTAL IN =       36030.3516

          OUT:                                     OUT:
          ----                                     ----
             STORAGE =     4902562.0000               STORAGE =        3334.2209
       CONSTANT HEAD =           0.0000         CONSTANT HEAD =           0.0000
       RIVER LEAKAGE =     6246520.5000         RIVER LEAKAGE =       32562.8672
            RECHARGE =           0.0000              RECHARGE =           0.0000

           TOTAL OUT =    11149082.0000             TOTAL OUT =       35897.0898

            IN - OUT =        4683.0000              IN - OUT =         133.2617

 PERCENT DISCREPANCY =           0.04     PERCENT DISCREPANCY =           0.37






         TIME SUMMARY AT END OF TIME STEP  143 IN STRESS PERIOD    1
                    SECONDS     MINUTES      HOURS       DAYS        YEARS
                    -----------------------------------------------------------
   TIME STEP LENGTH  86400.      1440.0      24.000      1.0000     2.73785E-03
 STRESS PERIOD TIME 1.23552E+07 2.05920E+05  3432.0      143.00     0.39151    
         TOTAL TIME 1.23552E+07 2.05920E+05  3432.0      143.00     0.39151    
1
 
 SOLVING FOR HEAD 
                                                   Max.-Head-Change                        Max.-Flux-Residual
  Residual-Control   Outer-Iter.   Inner-Iter.     Column Row Layer    Max.-Head-Change    Column Row Layer    Max.-Flux-Residual            L2-New               L2-Old           Solver-Max-Delh
          0                 1           2            40   21     1       0.6922944978E-01      39   16    1      -0.3368144704E+03      0.2264261601E+04      0.1136490592E+02      0.6922944978E-01
          0                 2           2            40   21     1      -0.5979005219E-02      14   13    1       0.5413748642E+02      0.2327582166E+03      0.2264261601E+04     -0.5979005219E-02

    ------------------------------------------------
       NWT REQUIRED            2 OUTER ITERATIONS 
       AND A TOTAL OF          4 INNER ITERATIONS.
    ------------------------------------------------

 OUTPUT CONTROL FOR STRESS PERIOD    1   TIME STEP  144
    SAVE HEAD FOR ALL LAYERS
    SAVE DRAWDOWN FOR ALL LAYERS
    SAVE BUDGET
    PRINT BUDGET
 UBDSV1 SAVING "         STORAGE" ON UNIT   9 AT TIME STEP144, STRESS PERIOD   1
 UBDSV2 SAVING "   CONSTANT HEAD" ON UNIT   9 AT TIME STEP144, STRESS PERIOD   1
 UBDSV1 SAVING "FLOW RIGHT FACE " ON UNIT   9 AT TIME STEP144, STRESS PERIOD   1
 UBDSV1 SAVING "FLOW FRONT FACE " ON UNIT   9 AT TIME STEP144, STRESS PERIOD   1
 UBDSV4 SAVING "   RIVER LEAKAGE" ON UNIT   9 AT TIME STEP144, STRESS PERIOD   1
 UBDSV3 SAVING "        RECHARGE" ON UNIT   9 AT TIME STEP144, STRESS PERIOD   1

 HEAD WILL BE SAVED ON UNIT 5037 AT END OF TIME STEP  144, STRESS PERIOD    1

 DRAWDOWN WILL BE SAVED ON UNIT   38 AT END OF TIME STEP  144, STRESS PERIOD    1
1
  VOLUMETRIC BUDGET FOR ENTIRE MODEL AT END OF TIME STEP  144, STRESS PERIOD   1
  ------------------------------------------------------------------------------

     CUMULATIVE VOLUMES      L**3       RATES FOR THIS TIME STEP      L**3/T
     ------------------                 ------------------------

           IN:                                      IN:
           ---                                      ---
             STORAGE =     7218661.0000               STORAGE =       29986.3594
       CONSTANT HEAD =           0.0000         CONSTANT HEAD =           0.0000
       RIVER LEAKAGE =      845210.3125         RIVER LEAKAGE =        5728.6294
            RECHARGE =     3125842.5000              RECHARGE =         233.7129

            TOTAL IN =    11189714.0000              TOTAL IN =       35948.6992

          OUT:                                     OUT:
          ----                                     ----
             STORAGE =     4905860.5000               STORAGE =        3298.5210
       CONSTANT HEAD =           0.0000         CONSTANT HEAD =           0.0000
       RIVER LEAKAGE =     6279034.5000         RIVER LEAKAGE =       32514.1953
            RECHARGE =           0.0000              RECHARGE =           0.0000

           TOTAL OUT =    11184895.0000             TOTAL OUT =       35812.7148

            IN - OUT =        4819.0000              IN - OUT =         135.9844

 PERCENT DISCREPANCY =           0.04     PERCENT DISCREPANCY =           0.38






         TIME SUMMARY AT END OF TIME STEP  144 IN STRESS PERIOD    1
                    SECONDS     MINUTES      HOURS       DAYS        YEARS
                    -----------------------------------------------------------
   TIME STEP LENGTH  86400.      1440.0      24.000      1.0000     2.73785E-03
 STRESS PERIOD TIME 1.24416E+07 2.07360E+05  3456.0      144.00     0.39425    
         TOTAL TIME 1.24416E+07 2.07360E+05  3456.0      144.00     0.39425    
1
 
 SOLVING FOR HEAD 
                                                   Max.-Head-Change                        Max.-Flux-Residual
  Residual-Control   Outer-Iter.   Inner-Iter.     Column Row Layer    Max.-Head-Change    Column Row Layer    Max.-Flux-Residual            L2-New               L2-Old           Solver-Max-Delh
          0                 1           2            40   21     1       0.6538300922E-01      39   16    1      -0.3343463231E+03      0.2255050889E+04      0.1164117047E+02      0.6538300922E-01
          0                 2           2            40   21     1      -0.5646805299E-02      39   16    1       0.3341848365E+02      0.2254642093E+03      0.2255050889E+04     -0.5646805299E-02

    ------------------------------------------------
       NWT REQUIRED            2 OUTER ITERATIONS 
       AND A TOTAL OF          4 INNER ITERATIONS.
    ------------------------------------------------

 OUTPUT CONTROL FOR STRESS PERIOD    1   TIME STEP  145
    SAVE HEAD FOR ALL LAYERS
    SAVE DRAWDOWN FOR ALL LAYERS
    SAVE BUDGET
    PRINT BUDGET
 UBDSV1 SAVING "         STORAGE" ON UNIT   9 AT TIME STEP145, STRESS PERIOD   1
 UBDSV2 SAVING "   CONSTANT HEAD" ON UNIT   9 AT TIME STEP145, STRESS PERIOD   1
 UBDSV1 SAVING "FLOW RIGHT FACE " ON UNIT   9 AT TIME STEP145, STRESS PERIOD   1
 UBDSV1 SAVING "FLOW FRONT FACE " ON UNIT   9 AT TIME STEP145, STRESS PERIOD   1
 UBDSV4 SAVING "   RIVER LEAKAGE" ON UNIT   9 AT TIME STEP145, STRESS PERIOD   1
 UBDSV3 SAVING "        RECHARGE" ON UNIT   9 AT TIME STEP145, STRESS PERIOD   1

 HEAD WILL BE SAVED ON UNIT 5037 AT END OF TIME STEP  145, STRESS PERIOD    1

 DRAWDOWN WILL BE SAVED ON UNIT   38 AT END OF TIME STEP  145, STRESS PERIOD    1
1
  VOLUMETRIC BUDGET FOR ENTIRE MODEL AT END OF TIME STEP  145, STRESS PERIOD   1
  ------------------------------------------------------------------------------

     CUMULATIVE VOLUMES      L**3       RATES FOR THIS TIME STEP      L**3/T
     ------------------                 ------------------------

           IN:                                      IN:
           ---                                      ---
             STORAGE =     7248557.0000               STORAGE =       29895.9922
       CONSTANT HEAD =           0.0000         CONSTANT HEAD =           0.0000
       RIVER LEAKAGE =      850946.3125         RIVER LEAKAGE =        5735.9878
            RECHARGE =     3126071.2500              RECHARGE =         228.7319

            TOTAL IN =    11225575.0000              TOTAL IN =       35860.7109

          OUT:                                     OUT:
          ----                                     ----
             STORAGE =     4909124.5000               STORAGE =        3263.8840
       CONSTANT HEAD =           0.0000         CONSTANT HEAD =           0.0000
       RIVER LEAKAGE =     6311500.5000         RIVER LEAKAGE =       32466.0176
            RECHARGE =           0.0000              RECHARGE =           0.0000

           TOTAL OUT =    11220625.0000             TOTAL OUT =       35729.9023

            IN - OUT =        4950.0000              IN - OUT =         130.8086

 PERCENT DISCREPANCY =           0.04     PERCENT DISCREPANCY =           0.37






         TIME SUMMARY AT END OF TIME STEP  145 IN STRESS PERIOD    1
                    SECONDS     MINUTES      HOURS       DAYS        YEARS
                    -----------------------------------------------------------
   TIME STEP LENGTH  86400.      1440.0      24.000      1.0000     2.73785E-03
 STRESS PERIOD TIME 1.25280E+07 2.08800E+05  3480.0      145.00     0.39699    
         TOTAL TIME 1.25280E+07 2.08800E+05  3480.0      145.00     0.39699    
1
 
 SOLVING FOR HEAD 
                                                   Max.-Head-Change                        Max.-Flux-Residual
  Residual-Control   Outer-Iter.   Inner-Iter.     Column Row Layer    Max.-Head-Change    Column Row Layer    Max.-Flux-Residual            L2-New               L2-Old           Solver-Max-Delh
          0                 1           2            40   21     1       0.6177280696E-01      39   16    1      -0.3319025510E+03      0.2245906898E+04      0.1143741293E+02      0.6177280696E-01
          0                 2           2            40   21     1      -0.5335008210E-02      39   16    1       0.3317434632E+02      0.2245560738E+03      0.2245906898E+04     -0.5335008210E-02

    ------------------------------------------------
       NWT REQUIRED            2 OUTER ITERATIONS 
       AND A TOTAL OF          4 INNER ITERATIONS.
    ------------------------------------------------

 OUTPUT CONTROL FOR STRESS PERIOD    1   TIME STEP  146
    SAVE HEAD FOR ALL LAYERS
    SAVE DRAWDOWN FOR ALL LAYERS
    SAVE BUDGET
    PRINT BUDGET
 UBDSV1 SAVING "         STORAGE" ON UNIT   9 AT TIME STEP146, STRESS PERIOD   1
 UBDSV2 SAVING "   CONSTANT HEAD" ON UNIT   9 AT TIME STEP146, STRESS PERIOD   1
 UBDSV1 SAVING "FLOW RIGHT FACE " ON UNIT   9 AT TIME STEP146, STRESS PERIOD   1
 UBDSV1 SAVING "FLOW FRONT FACE " ON UNIT   9 AT TIME STEP146, STRESS PERIOD   1
 UBDSV4 SAVING "   RIVER LEAKAGE" ON UNIT   9 AT TIME STEP146, STRESS PERIOD   1
 UBDSV3 SAVING "        RECHARGE" ON UNIT   9 AT TIME STEP146, STRESS PERIOD   1

 HEAD WILL BE SAVED ON UNIT 5037 AT END OF TIME STEP  146, STRESS PERIOD    1

 DRAWDOWN WILL BE SAVED ON UNIT   38 AT END OF TIME STEP  146, STRESS PERIOD    1
1
  VOLUMETRIC BUDGET FOR ENTIRE MODEL AT END OF TIME STEP  146, STRESS PERIOD   1
  ------------------------------------------------------------------------------

     CUMULATIVE VOLUMES      L**3       RATES FOR THIS TIME STEP      L**3/T
     ------------------                 ------------------------

           IN:                                      IN:
           ---                                      ---
             STORAGE =     7278368.0000               STORAGE =       29811.0352
       CONSTANT HEAD =           0.0000         CONSTANT HEAD =           0.0000
       RIVER LEAKAGE =      856689.6250         RIVER LEAKAGE =        5743.2969
            RECHARGE =     3126295.2500              RECHARGE =         223.9301

            TOTAL IN =    11261353.0000              TOTAL IN =       35778.2617

          OUT:                                     OUT:
          ----                                     ----
             STORAGE =     4912354.5000               STORAGE =        3230.1072
       CONSTANT HEAD =           0.0000         CONSTANT HEAD =           0.0000
       RIVER LEAKAGE =     6343918.5000         RIVER LEAKAGE =       32418.1680
            RECHARGE =           0.0000              RECHARGE =           0.0000

           TOTAL OUT =    11256273.0000             TOTAL OUT =       35648.2734

            IN - OUT =        5080.0000              IN - OUT =         129.9883

 PERCENT DISCREPANCY =           0.05     PERCENT DISCREPANCY =           0.36






         TIME SUMMARY AT END OF TIME STEP  146 IN STRESS PERIOD    1
                    SECONDS     MINUTES      HOURS       DAYS        YEARS
                    -----------------------------------------------------------
   TIME STEP LENGTH  86400.      1440.0      24.000      1.0000     2.73785E-03
 STRESS PERIOD TIME 1.26144E+07 2.10240E+05  3504.0      146.00     0.39973    
         TOTAL TIME 1.26144E+07 2.10240E+05  3504.0      146.00     0.39973    
1
 
 SOLVING FOR HEAD 
                                                   Max.-Head-Change                        Max.-Flux-Residual
  Residual-Control   Outer-Iter.   Inner-Iter.     Column Row Layer    Max.-Head-Change    Column Row Layer    Max.-Flux-Residual            L2-New               L2-Old           Solver-Max-Delh
          0                 1           2            40   21     1       0.5838409956E-01      39   16    1      -0.3294882449E+03      0.2236856723E+04      0.1150230415E+02      0.5838409956E-01
          0                 2           2            40   21     1      -0.5042340673E-02      39   16    1       0.3293315095E+02      0.2236595143E+03      0.2236856723E+04     -0.5042340673E-02

    ------------------------------------------------
       NWT REQUIRED            2 OUTER ITERATIONS 
       AND A TOTAL OF          4 INNER ITERATIONS.
    ------------------------------------------------

 OUTPUT CONTROL FOR STRESS PERIOD    1   TIME STEP  147
    SAVE HEAD FOR ALL LAYERS
    SAVE DRAWDOWN FOR ALL LAYERS
    SAVE BUDGET
    PRINT BUDGET
 UBDSV1 SAVING "         STORAGE" ON UNIT   9 AT TIME STEP147, STRESS PERIOD   1
 UBDSV2 SAVING "   CONSTANT HEAD" ON UNIT   9 AT TIME STEP147, STRESS PERIOD   1
 UBDSV1 SAVING "FLOW RIGHT FACE " ON UNIT   9 AT TIME STEP147, STRESS PERIOD   1
 UBDSV1 SAVING "FLOW FRONT FACE " ON UNIT   9 AT TIME STEP147, STRESS PERIOD   1
 UBDSV4 SAVING "   RIVER LEAKAGE" ON UNIT   9 AT TIME STEP147, STRESS PERIOD   1
 UBDSV3 SAVING "        RECHARGE" ON UNIT   9 AT TIME STEP147, STRESS PERIOD   1

 HEAD WILL BE SAVED ON UNIT 5037 AT END OF TIME STEP  147, STRESS PERIOD    1

 DRAWDOWN WILL BE SAVED ON UNIT   38 AT END OF TIME STEP  147, STRESS PERIOD    1
1
  VOLUMETRIC BUDGET FOR ENTIRE MODEL AT END OF TIME STEP  147, STRESS PERIOD   1
  ------------------------------------------------------------------------------

     CUMULATIVE VOLUMES      L**3       RATES FOR THIS TIME STEP      L**3/T
     ------------------                 ------------------------

           IN:                                      IN:
           ---                                      ---
             STORAGE =     7308095.0000               STORAGE =       29727.0762
       CONSTANT HEAD =           0.0000         CONSTANT HEAD =           0.0000
       RIVER LEAKAGE =      862440.1875         RIVER LEAKAGE =        5750.5811
            RECHARGE =     3126514.5000              RECHARGE =         219.2985

            TOTAL IN =    11297050.0000              TOTAL IN =       35696.9531

          OUT:                                     OUT:
          ----                                     ----
             STORAGE =     4915551.5000               STORAGE =        3197.1885
       CONSTANT HEAD =           0.0000         CONSTANT HEAD =           0.0000
       RIVER LEAKAGE =     6376289.0000         RIVER LEAKAGE =       32370.5801
            RECHARGE =           0.0000              RECHARGE =           0.0000

           TOTAL OUT =    11291840.0000             TOTAL OUT =       35567.7695

            IN - OUT =        5210.0000              IN - OUT =         129.1836

 PERCENT DISCREPANCY =           0.05     PERCENT DISCREPANCY =           0.36






         TIME SUMMARY AT END OF TIME STEP  147 IN STRESS PERIOD    1
                    SECONDS     MINUTES      HOURS       DAYS        YEARS
                    -----------------------------------------------------------
   TIME STEP LENGTH  86400.      1440.0      24.000      1.0000     2.73785E-03
 STRESS PERIOD TIME 1.27008E+07 2.11680E+05  3528.0      147.00     0.40246    
         TOTAL TIME 1.27008E+07 2.11680E+05  3528.0      147.00     0.40246    
1
 
 SOLVING FOR HEAD 
                                                   Max.-Head-Change                        Max.-Flux-Residual
  Residual-Control   Outer-Iter.   Inner-Iter.     Column Row Layer    Max.-Head-Change    Column Row Layer    Max.-Flux-Residual            L2-New               L2-Old           Solver-Max-Delh
          0                 1           2            40   21     1       0.5520147406E-01      39   16    1      -0.3270992659E+03      0.2227904162E+04      0.1158949615E+02      0.5520147406E-01
          0                 2           2            40   21     1      -0.4767471544E-02      39   16    1       0.3269448362E+02      0.2227736202E+03      0.2227904162E+04     -0.4767471544E-02

    ------------------------------------------------
       NWT REQUIRED            2 OUTER ITERATIONS 
       AND A TOTAL OF          4 INNER ITERATIONS.
    ------------------------------------------------

 OUTPUT CONTROL FOR STRESS PERIOD    1   TIME STEP  148
    SAVE HEAD FOR ALL LAYERS
    SAVE DRAWDOWN FOR ALL LAYERS
    SAVE BUDGET
    PRINT BUDGET
 UBDSV1 SAVING "         STORAGE" ON UNIT   9 AT TIME STEP148, STRESS PERIOD   1
 UBDSV2 SAVING "   CONSTANT HEAD" ON UNIT   9 AT TIME STEP148, STRESS PERIOD   1
 UBDSV1 SAVING "FLOW RIGHT FACE " ON UNIT   9 AT TIME STEP148, STRESS PERIOD   1
 UBDSV1 SAVING "FLOW FRONT FACE " ON UNIT   9 AT TIME STEP148, STRESS PERIOD   1
 UBDSV4 SAVING "   RIVER LEAKAGE" ON UNIT   9 AT TIME STEP148, STRESS PERIOD   1
 UBDSV3 SAVING "        RECHARGE" ON UNIT   9 AT TIME STEP148, STRESS PERIOD   1

 HEAD WILL BE SAVED ON UNIT 5037 AT END OF TIME STEP  148, STRESS PERIOD    1

 DRAWDOWN WILL BE SAVED ON UNIT   38 AT END OF TIME STEP  148, STRESS PERIOD    1
1
  VOLUMETRIC BUDGET FOR ENTIRE MODEL AT END OF TIME STEP  148, STRESS PERIOD   1
  ------------------------------------------------------------------------------

     CUMULATIVE VOLUMES      L**3       RATES FOR THIS TIME STEP      L**3/T
     ------------------                 ------------------------

           IN:                                      IN:
           ---                                      ---
             STORAGE =     7337739.0000               STORAGE =       29644.1914
       CONSTANT HEAD =           0.0000         CONSTANT HEAD =           0.0000
       RIVER LEAKAGE =      868198.0000         RIVER LEAKAGE =        5757.8193
            RECHARGE =     3126729.2500              RECHARGE =         214.8286

            TOTAL IN =    11332666.0000              TOTAL IN =       35616.8398

          OUT:                                     OUT:
          ----                                     ----
             STORAGE =     4918716.5000               STORAGE =        3165.1577
       CONSTANT HEAD =           0.0000         CONSTANT HEAD =           0.0000
       RIVER LEAKAGE =     6408612.5000         RIVER LEAKAGE =       32323.2676
            RECHARGE =           0.0000              RECHARGE =           0.0000

           TOTAL OUT =    11327329.0000             TOTAL OUT =       35488.4258

            IN - OUT =        5337.0000              IN - OUT =         128.4141

 PERCENT DISCREPANCY =           0.05     PERCENT DISCREPANCY =           0.36






         TIME SUMMARY AT END OF TIME STEP  148 IN STRESS PERIOD    1
                    SECONDS     MINUTES      HOURS       DAYS        YEARS
                    -----------------------------------------------------------
   TIME STEP LENGTH  86400.      1440.0      24.000      1.0000     2.73785E-03
 STRESS PERIOD TIME 1.27872E+07 2.13120E+05  3552.0      148.00     0.40520    
         TOTAL TIME 1.27872E+07 2.13120E+05  3552.0      148.00     0.40520    
1
 
 SOLVING FOR HEAD 
                                                   Max.-Head-Change                        Max.-Flux-Residual
  Residual-Control   Outer-Iter.   Inner-Iter.     Column Row Layer    Max.-Head-Change    Column Row Layer    Max.-Flux-Residual            L2-New               L2-Old           Solver-Max-Delh
          0                 1           2            40   21     1       0.5220745942E-01      39   16    1      -0.3247406630E+03      0.2219045041E+04      0.1169435954E+02      0.5220745942E-01
          0                 2           2            19    1     1       0.9066677775E-01      39   16    1       0.3245884926E+02      0.2229731867E+03      0.2219045041E+04      0.9066677775E-01

    ------------------------------------------------
       NWT REQUIRED            2 OUTER ITERATIONS 
       AND A TOTAL OF          4 INNER ITERATIONS.
    ------------------------------------------------

 OUTPUT CONTROL FOR STRESS PERIOD    1   TIME STEP  149
    SAVE HEAD FOR ALL LAYERS
    SAVE DRAWDOWN FOR ALL LAYERS
    SAVE BUDGET
    PRINT BUDGET
 UBDSV1 SAVING "         STORAGE" ON UNIT   9 AT TIME STEP149, STRESS PERIOD   1
 UBDSV2 SAVING "   CONSTANT HEAD" ON UNIT   9 AT TIME STEP149, STRESS PERIOD   1
 UBDSV1 SAVING "FLOW RIGHT FACE " ON UNIT   9 AT TIME STEP149, STRESS PERIOD   1
 UBDSV1 SAVING "FLOW FRONT FACE " ON UNIT   9 AT TIME STEP149, STRESS PERIOD   1
 UBDSV4 SAVING "   RIVER LEAKAGE" ON UNIT   9 AT TIME STEP149, STRESS PERIOD   1
 UBDSV3 SAVING "        RECHARGE" ON UNIT   9 AT TIME STEP149, STRESS PERIOD   1

 HEAD WILL BE SAVED ON UNIT 5037 AT END OF TIME STEP  149, STRESS PERIOD    1

 DRAWDOWN WILL BE SAVED ON UNIT   38 AT END OF TIME STEP  149, STRESS PERIOD    1
1
  VOLUMETRIC BUDGET FOR ENTIRE MODEL AT END OF TIME STEP  149, STRESS PERIOD   1
  ------------------------------------------------------------------------------

     CUMULATIVE VOLUMES      L**3       RATES FOR THIS TIME STEP      L**3/T
     ------------------                 ------------------------

           IN:                                      IN:
           ---                                      ---
             STORAGE =     7367301.5000               STORAGE =       29562.3906
       CONSTANT HEAD =           0.0000         CONSTANT HEAD =           0.0000
       RIVER LEAKAGE =      873963.0000         RIVER LEAKAGE =        5765.0176
            RECHARGE =     3126939.7500              RECHARGE =         210.5126

            TOTAL IN =    11368204.0000              TOTAL IN =       35537.9180

          OUT:                                     OUT:
          ----                                     ----
             STORAGE =     4921850.0000               STORAGE =        3133.6401
       CONSTANT HEAD =           0.0000         CONSTANT HEAD =           0.0000
       RIVER LEAKAGE =     6440888.5000         RIVER LEAKAGE =       32276.2129
            RECHARGE =           0.0000              RECHARGE =           0.0000

           TOTAL OUT =    11362738.0000             TOTAL OUT =       35409.8516

            IN - OUT =        5466.0000              IN - OUT =         128.0664

 PERCENT DISCREPANCY =           0.05     PERCENT DISCREPANCY =           0.36






         TIME SUMMARY AT END OF TIME STEP  149 IN STRESS PERIOD    1
                    SECONDS     MINUTES      HOURS       DAYS        YEARS
                    -----------------------------------------------------------
   TIME STEP LENGTH  86400.      1440.0      24.000      1.0000     2.73785E-03
 STRESS PERIOD TIME 1.28736E+07 2.14560E+05  3576.0      149.00     0.40794    
         TOTAL TIME 1.28736E+07 2.14560E+05  3576.0      149.00     0.40794    
1
 
 SOLVING FOR HEAD 
                                                   Max.-Head-Change                        Max.-Flux-Residual
  Residual-Control   Outer-Iter.   Inner-Iter.     Column Row Layer    Max.-Head-Change    Column Row Layer    Max.-Flux-Residual            L2-New               L2-Old           Solver-Max-Delh
          0                 1           2            19    1     1       0.6007909343E+00      39   16    1      -0.3224051873E+03      0.2210147507E+04      0.1192360809E+02      0.6007909343E+00
          0                 2           2            26   23     1       0.2066343272E+00      26   23    1       0.7837862761E+02      0.2341736443E+03      0.2210147507E+04      0.2066343272E+00
          0                 3           2            26   23     1      -0.1784569221E-01      26   23    1      -0.7841110004E+01      0.1357315226E+02      0.2341736443E+03     -0.1784569221E-01

    ------------------------------------------------
       NWT REQUIRED            3 OUTER ITERATIONS 
       AND A TOTAL OF          6 INNER ITERATIONS.
    ------------------------------------------------

 OUTPUT CONTROL FOR STRESS PERIOD    1   TIME STEP  150
    SAVE HEAD FOR ALL LAYERS
    SAVE DRAWDOWN FOR ALL LAYERS
    SAVE BUDGET
    PRINT BUDGET
 UBDSV1 SAVING "         STORAGE" ON UNIT   9 AT TIME STEP150, STRESS PERIOD   1
 UBDSV2 SAVING "   CONSTANT HEAD" ON UNIT   9 AT TIME STEP150, STRESS PERIOD   1
 UBDSV1 SAVING "FLOW RIGHT FACE " ON UNIT   9 AT TIME STEP150, STRESS PERIOD   1
 UBDSV1 SAVING "FLOW FRONT FACE " ON UNIT   9 AT TIME STEP150, STRESS PERIOD   1
 UBDSV4 SAVING "   RIVER LEAKAGE" ON UNIT   9 AT TIME STEP150, STRESS PERIOD   1
 UBDSV3 SAVING "        RECHARGE" ON UNIT   9 AT TIME STEP150, STRESS PERIOD   1

 HEAD WILL BE SAVED ON UNIT 5037 AT END OF TIME STEP  150, STRESS PERIOD    1

 DRAWDOWN WILL BE SAVED ON UNIT   38 AT END OF TIME STEP  150, STRESS PERIOD    1
1
  VOLUMETRIC BUDGET FOR ENTIRE MODEL AT END OF TIME STEP  150, STRESS PERIOD   1
  ------------------------------------------------------------------------------

     CUMULATIVE VOLUMES      L**3       RATES FOR THIS TIME STEP      L**3/T
     ------------------                 ------------------------

           IN:                                      IN:
           ---                                      ---
             STORAGE =     7396638.0000               STORAGE =       29336.6797
       CONSTANT HEAD =           0.0000         CONSTANT HEAD =           0.0000
       RIVER LEAKAGE =      879735.1250         RIVER LEAKAGE =        5772.1489
            RECHARGE =     3127146.0000              RECHARGE =         206.3430

            TOTAL IN =    11403519.0000              TOTAL IN =       35315.1719

          OUT:                                     OUT:
          ----                                     ----
             STORAGE =     4924929.0000               STORAGE =        3079.2075
       CONSTANT HEAD =           0.0000         CONSTANT HEAD =           0.0000
       RIVER LEAKAGE =     6473118.0000         RIVER LEAKAGE =       32229.6621
            RECHARGE =           0.0000              RECHARGE =           0.0000

           TOTAL OUT =    11398047.0000             TOTAL OUT =       35308.8711

            IN - OUT =        5472.0000              IN - OUT =           6.3008

 PERCENT DISCREPANCY =           0.05     PERCENT DISCREPANCY =           0.02






         TIME SUMMARY AT END OF TIME STEP  150 IN STRESS PERIOD    1
                    SECONDS     MINUTES      HOURS       DAYS        YEARS
                    -----------------------------------------------------------
   TIME STEP LENGTH  86400.      1440.0      24.000      1.0000     2.73785E-03
 STRESS PERIOD TIME 1.29600E+07 2.16000E+05  3600.0      150.00     0.41068    
         TOTAL TIME 1.29600E+07 2.16000E+05  3600.0      150.00     0.41068    
1
 
 SOLVING FOR HEAD 
                                                   Max.-Head-Change                        Max.-Flux-Residual
  Residual-Control   Outer-Iter.   Inner-Iter.     Column Row Layer    Max.-Head-Change    Column Row Layer    Max.-Flux-Residual            L2-New               L2-Old           Solver-Max-Delh
          0                 1           2            19    1     1       0.4668546719E+00      28    2    1      -0.3206947657E+03      0.2200128558E+04      0.1357315226E+02      0.4668546719E+00
          0                 2           2            38   12     1       0.2912734724E+00      38   12    1       0.5968176461E+02      0.2278065715E+03      0.2200128558E+04      0.2912734724E+00
          0                 3           2            38   12     1      -0.2515631047E-01      38   12    1      -0.5971755168E+01      0.1254809812E+02      0.2278065715E+03     -0.2515631047E-01

    ------------------------------------------------
       NWT REQUIRED            3 OUTER ITERATIONS 
       AND A TOTAL OF          6 INNER ITERATIONS.
    ------------------------------------------------

 OUTPUT CONTROL FOR STRESS PERIOD    1   TIME STEP  151
    SAVE HEAD FOR ALL LAYERS
    SAVE DRAWDOWN FOR ALL LAYERS
    SAVE BUDGET
    PRINT BUDGET
 UBDSV1 SAVING "         STORAGE" ON UNIT   9 AT TIME STEP151, STRESS PERIOD   1
 UBDSV2 SAVING "   CONSTANT HEAD" ON UNIT   9 AT TIME STEP151, STRESS PERIOD   1
 UBDSV1 SAVING "FLOW RIGHT FACE " ON UNIT   9 AT TIME STEP151, STRESS PERIOD   1
 UBDSV1 SAVING "FLOW FRONT FACE " ON UNIT   9 AT TIME STEP151, STRESS PERIOD   1
 UBDSV4 SAVING "   RIVER LEAKAGE" ON UNIT   9 AT TIME STEP151, STRESS PERIOD   1
 UBDSV3 SAVING "        RECHARGE" ON UNIT   9 AT TIME STEP151, STRESS PERIOD   1

 HEAD WILL BE SAVED ON UNIT 5037 AT END OF TIME STEP  151, STRESS PERIOD    1

 DRAWDOWN WILL BE SAVED ON UNIT   38 AT END OF TIME STEP  151, STRESS PERIOD    1
1
  VOLUMETRIC BUDGET FOR ENTIRE MODEL AT END OF TIME STEP  151, STRESS PERIOD   1
  ------------------------------------------------------------------------------

     CUMULATIVE VOLUMES      L**3       RATES FOR THIS TIME STEP      L**3/T
     ------------------                 ------------------------

           IN:                                      IN:
           ---                                      ---
             STORAGE =     7425881.5000               STORAGE =       29243.4473
       CONSTANT HEAD =           0.0000         CONSTANT HEAD =           0.0000
       RIVER LEAKAGE =      885514.3750         RIVER LEAKAGE =        5779.2764
            RECHARGE =     3127348.2500              RECHARGE =         202.3127

            TOTAL IN =    11438744.0000              TOTAL IN =       35225.0352

          OUT:                                     OUT:
          ----                                     ----
             STORAGE =     4927961.0000               STORAGE =        3032.0020
       CONSTANT HEAD =           0.0000         CONSTANT HEAD =           0.0000
       RIVER LEAKAGE =     6505304.5000         RIVER LEAKAGE =       32186.7012
            RECHARGE =           0.0000              RECHARGE =           0.0000

           TOTAL OUT =    11433266.0000             TOTAL OUT =       35218.7031

            IN - OUT =        5478.0000              IN - OUT =           6.3320

 PERCENT DISCREPANCY =           0.05     PERCENT DISCREPANCY =           0.02






         TIME SUMMARY AT END OF TIME STEP  151 IN STRESS PERIOD    1
                    SECONDS     MINUTES      HOURS       DAYS        YEARS
                    -----------------------------------------------------------
   TIME STEP LENGTH  86400.      1440.0      24.000      1.0000     2.73785E-03
 STRESS PERIOD TIME 1.30464E+07 2.17440E+05  3624.0      151.00     0.41342    
         TOTAL TIME 1.30464E+07 2.17440E+05  3624.0      151.00     0.41342    
1
 
 SOLVING FOR HEAD 
                                                   Max.-Head-Change                        Max.-Flux-Residual
  Residual-Control   Outer-Iter.   Inner-Iter.     Column Row Layer    Max.-Head-Change    Column Row Layer    Max.-Flux-Residual            L2-New               L2-Old           Solver-Max-Delh
          0                 1           2            19    1     1       0.3672612892E+00      29    3    1      -0.3198856592E+03      0.2189899327E+04      0.1254809812E+02      0.3672612892E+00
          0                 2           2            19    1     1      -0.3171791594E-01      29    3    1       0.3198579352E+02      0.2189432097E+03      0.2189899327E+04     -0.3171791594E-01

    ------------------------------------------------
       NWT REQUIRED            2 OUTER ITERATIONS 
       AND A TOTAL OF          4 INNER ITERATIONS.
    ------------------------------------------------

 OUTPUT CONTROL FOR STRESS PERIOD    1   TIME STEP  152
    SAVE HEAD FOR ALL LAYERS
    SAVE DRAWDOWN FOR ALL LAYERS
    SAVE BUDGET
    PRINT BUDGET
 UBDSV1 SAVING "         STORAGE" ON UNIT   9 AT TIME STEP152, STRESS PERIOD   1
 UBDSV2 SAVING "   CONSTANT HEAD" ON UNIT   9 AT TIME STEP152, STRESS PERIOD   1
 UBDSV1 SAVING "FLOW RIGHT FACE " ON UNIT   9 AT TIME STEP152, STRESS PERIOD   1
 UBDSV1 SAVING "FLOW FRONT FACE " ON UNIT   9 AT TIME STEP152, STRESS PERIOD   1
 UBDSV4 SAVING "   RIVER LEAKAGE" ON UNIT   9 AT TIME STEP152, STRESS PERIOD   1
 UBDSV3 SAVING "        RECHARGE" ON UNIT   9 AT TIME STEP152, STRESS PERIOD   1

 HEAD WILL BE SAVED ON UNIT 5037 AT END OF TIME STEP  152, STRESS PERIOD    1

 DRAWDOWN WILL BE SAVED ON UNIT   38 AT END OF TIME STEP  152, STRESS PERIOD    1
1
  VOLUMETRIC BUDGET FOR ENTIRE MODEL AT END OF TIME STEP  152, STRESS PERIOD   1
  ------------------------------------------------------------------------------

     CUMULATIVE VOLUMES      L**3       RATES FOR THIS TIME STEP      L**3/T
     ------------------                 ------------------------

           IN:                                      IN:
           ---                                      ---
             STORAGE =     7455172.5000               STORAGE =       29290.8887
       CONSTANT HEAD =           0.0000         CONSTANT HEAD =           0.0000
       RIVER LEAKAGE =      891300.7500         RIVER LEAKAGE =        5786.3984
            RECHARGE =     3127546.7500              RECHARGE =         198.4153

            TOTAL IN =    11474020.0000              TOTAL IN =       35275.7031

          OUT:                                     OUT:
          ----                                     ----
             STORAGE =     4930961.0000               STORAGE =        2999.8611
       CONSTANT HEAD =           0.0000         CONSTANT HEAD =           0.0000
       RIVER LEAKAGE =     6537449.5000         RIVER LEAKAGE =       32144.8262
            RECHARGE =           0.0000              RECHARGE =           0.0000

           TOTAL OUT =    11468410.0000             TOTAL OUT =       35144.6875

            IN - OUT =        5610.0000              IN - OUT =         131.0156

 PERCENT DISCREPANCY =           0.05     PERCENT DISCREPANCY =           0.37






         TIME SUMMARY AT END OF TIME STEP  152 IN STRESS PERIOD    1
                    SECONDS     MINUTES      HOURS       DAYS        YEARS
                    -----------------------------------------------------------
   TIME STEP LENGTH  86400.      1440.0      24.000      1.0000     2.73785E-03
 STRESS PERIOD TIME 1.31328E+07 2.18880E+05  3648.0      152.00     0.41615    
         TOTAL TIME 1.31328E+07 2.18880E+05  3648.0      152.00     0.41615    
1
 
 SOLVING FOR HEAD 
                                                   Max.-Head-Change                        Max.-Flux-Residual
  Residual-Control   Outer-Iter.   Inner-Iter.     Column Row Layer    Max.-Head-Change    Column Row Layer    Max.-Flux-Residual            L2-New               L2-Old           Solver-Max-Delh
          0                 1           2            19    1     1       0.2923144400E+00      29    3    1      -0.3196361666E+03      0.2180672890E+04      0.1094680660E+02      0.2923144400E+00
          0                 2           2            19    1     1      -0.2532734950E-01      29    3    1       0.3196084489E+02      0.2180209729E+03      0.2180672890E+04     -0.2532734950E-01

    ------------------------------------------------
       NWT REQUIRED            2 OUTER ITERATIONS 
       AND A TOTAL OF          4 INNER ITERATIONS.
    ------------------------------------------------

 OUTPUT CONTROL FOR STRESS PERIOD    1   TIME STEP  153
    SAVE HEAD FOR ALL LAYERS
    SAVE DRAWDOWN FOR ALL LAYERS
    SAVE BUDGET
    PRINT BUDGET
 UBDSV1 SAVING "         STORAGE" ON UNIT   9 AT TIME STEP153, STRESS PERIOD   1
 UBDSV2 SAVING "   CONSTANT HEAD" ON UNIT   9 AT TIME STEP153, STRESS PERIOD   1
 UBDSV1 SAVING "FLOW RIGHT FACE " ON UNIT   9 AT TIME STEP153, STRESS PERIOD   1
 UBDSV1 SAVING "FLOW FRONT FACE " ON UNIT   9 AT TIME STEP153, STRESS PERIOD   1
 UBDSV4 SAVING "   RIVER LEAKAGE" ON UNIT   9 AT TIME STEP153, STRESS PERIOD   1
 UBDSV3 SAVING "        RECHARGE" ON UNIT   9 AT TIME STEP153, STRESS PERIOD   1

 HEAD WILL BE SAVED ON UNIT 5037 AT END OF TIME STEP  153, STRESS PERIOD    1

 DRAWDOWN WILL BE SAVED ON UNIT   38 AT END OF TIME STEP  153, STRESS PERIOD    1
1
  VOLUMETRIC BUDGET FOR ENTIRE MODEL AT END OF TIME STEP  153, STRESS PERIOD   1
  ------------------------------------------------------------------------------

     CUMULATIVE VOLUMES      L**3       RATES FOR THIS TIME STEP      L**3/T
     ------------------                 ------------------------

           IN:                                      IN:
           ---                                      ---
             STORAGE =     7484374.5000               STORAGE =       29202.0098
       CONSTANT HEAD =           0.0000         CONSTANT HEAD =           0.0000
       RIVER LEAKAGE =      897094.1875         RIVER LEAKAGE =        5793.4404
            RECHARGE =     3127741.5000              RECHARGE =         194.6444

            TOTAL IN =    11509210.0000              TOTAL IN =       35190.0938

          OUT:                                     OUT:
          ----                                     ----
             STORAGE =     4933918.0000               STORAGE =        2956.8206
       CONSTANT HEAD =           0.0000         CONSTANT HEAD =           0.0000
       RIVER LEAKAGE =     6569552.0000         RIVER LEAKAGE =       32102.4863
            RECHARGE =           0.0000              RECHARGE =           0.0000

           TOTAL OUT =    11503470.0000             TOTAL OUT =       35059.3086

            IN - OUT =        5740.0000              IN - OUT =         130.7852

 PERCENT DISCREPANCY =           0.05     PERCENT DISCREPANCY =           0.37






         TIME SUMMARY AT END OF TIME STEP  153 IN STRESS PERIOD    1
                    SECONDS     MINUTES      HOURS       DAYS        YEARS
                    -----------------------------------------------------------
   TIME STEP LENGTH  86400.      1440.0      24.000      1.0000     2.73785E-03
 STRESS PERIOD TIME 1.32192E+07 2.20320E+05  3672.0      153.00     0.41889    
         TOTAL TIME 1.32192E+07 2.20320E+05  3672.0      153.00     0.41889    
1
 
 SOLVING FOR HEAD 
                                                   Max.-Head-Change                        Max.-Flux-Residual
  Residual-Control   Outer-Iter.   Inner-Iter.     Column Row Layer    Max.-Head-Change    Column Row Layer    Max.-Flux-Residual            L2-New               L2-Old           Solver-Max-Delh
          0                 1           2            19    1     1       0.2352471837E+00      29    3    1      -0.3194095225E+03      0.2171986357E+04      0.1090048941E+02      0.2352471837E+00
          0                 2           2            19    1     1      -0.1962241552E-01      29    3    1       0.3193818114E+02      0.2171512285E+03      0.2171986357E+04     -0.1962241552E-01

    ------------------------------------------------
       NWT REQUIRED            2 OUTER ITERATIONS 
       AND A TOTAL OF          4 INNER ITERATIONS.
    ------------------------------------------------

 OUTPUT CONTROL FOR STRESS PERIOD    1   TIME STEP  154
    SAVE HEAD FOR ALL LAYERS
    SAVE DRAWDOWN FOR ALL LAYERS
    SAVE BUDGET
    PRINT BUDGET
 UBDSV1 SAVING "         STORAGE" ON UNIT   9 AT TIME STEP154, STRESS PERIOD   1
 UBDSV2 SAVING "   CONSTANT HEAD" ON UNIT   9 AT TIME STEP154, STRESS PERIOD   1
 UBDSV1 SAVING "FLOW RIGHT FACE " ON UNIT   9 AT TIME STEP154, STRESS PERIOD   1
 UBDSV1 SAVING "FLOW FRONT FACE " ON UNIT   9 AT TIME STEP154, STRESS PERIOD   1
 UBDSV4 SAVING "   RIVER LEAKAGE" ON UNIT   9 AT TIME STEP154, STRESS PERIOD   1
 UBDSV3 SAVING "        RECHARGE" ON UNIT   9 AT TIME STEP154, STRESS PERIOD   1

 HEAD WILL BE SAVED ON UNIT 5037 AT END OF TIME STEP  154, STRESS PERIOD    1

 DRAWDOWN WILL BE SAVED ON UNIT   38 AT END OF TIME STEP  154, STRESS PERIOD    1
1
  VOLUMETRIC BUDGET FOR ENTIRE MODEL AT END OF TIME STEP  154, STRESS PERIOD   1
  ------------------------------------------------------------------------------

     CUMULATIVE VOLUMES      L**3       RATES FOR THIS TIME STEP      L**3/T
     ------------------                 ------------------------

           IN:                                      IN:
           ---                                      ---
             STORAGE =     7513489.5000               STORAGE =       29115.0176
       CONSTANT HEAD =           0.0000         CONSTANT HEAD =           0.0000
       RIVER LEAKAGE =      902894.6250         RIVER LEAKAGE =        5800.4585
            RECHARGE =     3127932.5000              RECHARGE =         190.9943

            TOTAL IN =    11544316.0000              TOTAL IN =       35106.4727

          OUT:                                     OUT:
          ----                                     ----
             STORAGE =     4936834.0000               STORAGE =        2916.2158
       CONSTANT HEAD =           0.0000         CONSTANT HEAD =           0.0000
       RIVER LEAKAGE =     6601611.5000         RIVER LEAKAGE =       32059.6934
            RECHARGE =           0.0000              RECHARGE =           0.0000

           TOTAL OUT =    11538446.0000             TOTAL OUT =       34975.9102

            IN - OUT =        5870.0000              IN - OUT =         130.5625

 PERCENT DISCREPANCY =           0.05     PERCENT DISCREPANCY =           0.37






         TIME SUMMARY AT END OF TIME STEP  154 IN STRESS PERIOD    1
                    SECONDS     MINUTES      HOURS       DAYS        YEARS
                    -----------------------------------------------------------
   TIME STEP LENGTH  86400.      1440.0      24.000      1.0000     2.73785E-03
 STRESS PERIOD TIME 1.33056E+07 2.21760E+05  3696.0      154.00     0.42163    
         TOTAL TIME 1.33056E+07 2.21760E+05  3696.0      154.00     0.42163    
1
 
 SOLVING FOR HEAD 
                                                   Max.-Head-Change                        Max.-Flux-Residual
  Residual-Control   Outer-Iter.   Inner-Iter.     Column Row Layer    Max.-Head-Change    Column Row Layer    Max.-Flux-Residual            L2-New               L2-Old           Solver-Max-Delh
          0                 1           2            19    1     1       0.1925492783E+00      29    3    1      -0.3191787187E+03      0.2163578347E+04      0.1085721441E+02      0.1925492783E+00
          0                 2           2            19    1     1      -0.1662919219E-01      29    3    1       0.3191510111E+02      0.2163120648E+03      0.2163578347E+04     -0.1662919219E-01

    ------------------------------------------------
       NWT REQUIRED            2 OUTER ITERATIONS 
       AND A TOTAL OF          4 INNER ITERATIONS.
    ------------------------------------------------

 OUTPUT CONTROL FOR STRESS PERIOD    1   TIME STEP  155
    SAVE HEAD FOR ALL LAYERS
    SAVE DRAWDOWN FOR ALL LAYERS
    SAVE BUDGET
    PRINT BUDGET
 UBDSV1 SAVING "         STORAGE" ON UNIT   9 AT TIME STEP155, STRESS PERIOD   1
 UBDSV2 SAVING "   CONSTANT HEAD" ON UNIT   9 AT TIME STEP155, STRESS PERIOD   1
 UBDSV1 SAVING "FLOW RIGHT FACE " ON UNIT   9 AT TIME STEP155, STRESS PERIOD   1
 UBDSV1 SAVING "FLOW FRONT FACE " ON UNIT   9 AT TIME STEP155, STRESS PERIOD   1
 UBDSV4 SAVING "   RIVER LEAKAGE" ON UNIT   9 AT TIME STEP155, STRESS PERIOD   1
 UBDSV3 SAVING "        RECHARGE" ON UNIT   9 AT TIME STEP155, STRESS PERIOD   1

 HEAD WILL BE SAVED ON UNIT 5037 AT END OF TIME STEP  155, STRESS PERIOD    1

 DRAWDOWN WILL BE SAVED ON UNIT   38 AT END OF TIME STEP  155, STRESS PERIOD    1
1
  VOLUMETRIC BUDGET FOR ENTIRE MODEL AT END OF TIME STEP  155, STRESS PERIOD   1
  ------------------------------------------------------------------------------

     CUMULATIVE VOLUMES      L**3       RATES FOR THIS TIME STEP      L**3/T
     ------------------                 ------------------------

           IN:                                      IN:
           ---                                      ---
             STORAGE =     7542520.0000               STORAGE =       29030.6660
       CONSTANT HEAD =           0.0000         CONSTANT HEAD =           0.0000
       RIVER LEAKAGE =      908702.0625         RIVER LEAKAGE =        5807.4326
            RECHARGE =     3128120.0000              RECHARGE =         187.4594

            TOTAL IN =    11579342.0000              TOTAL IN =       35025.5586

          OUT:                                     OUT:
          ----                                     ----
             STORAGE =     4939712.5000               STORAGE =        2878.6523
       CONSTANT HEAD =           0.0000         CONSTANT HEAD =           0.0000
       RIVER LEAKAGE =     6633628.0000         RIVER LEAKAGE =       32016.5762
            RECHARGE =           0.0000              RECHARGE =           0.0000

           TOTAL OUT =    11573340.0000             TOTAL OUT =       34895.2266

            IN - OUT =        6002.0000              IN - OUT =         130.3320

 PERCENT DISCREPANCY =           0.05     PERCENT DISCREPANCY =           0.37






         TIME SUMMARY AT END OF TIME STEP  155 IN STRESS PERIOD    1
                    SECONDS     MINUTES      HOURS       DAYS        YEARS
                    -----------------------------------------------------------
   TIME STEP LENGTH  86400.      1440.0      24.000      1.0000     2.73785E-03
 STRESS PERIOD TIME 1.33920E+07 2.23200E+05  3720.0      155.00     0.42437    
         TOTAL TIME 1.33920E+07 2.23200E+05  3720.0      155.00     0.42437    
1
 
 SOLVING FOR HEAD 
                                                   Max.-Head-Change                        Max.-Flux-Residual
  Residual-Control   Outer-Iter.   Inner-Iter.     Column Row Layer    Max.-Head-Change    Column Row Layer    Max.-Flux-Residual            L2-New               L2-Old           Solver-Max-Delh
          0                 1           2            19    1     1       0.1584078073E+00      29    3    1      -0.3189425565E+03      0.2155360176E+04      0.1081525963E+02      0.1584078073E+00
          0                 2           2            19    1     1      -0.1368062395E-01      29    3    1       0.3189148555E+02      0.2154911134E+03      0.2155360176E+04     -0.1368062395E-01

    ------------------------------------------------
       NWT REQUIRED            2 OUTER ITERATIONS 
       AND A TOTAL OF          4 INNER ITERATIONS.
    ------------------------------------------------

 OUTPUT CONTROL FOR STRESS PERIOD    1   TIME STEP  156
    SAVE HEAD FOR ALL LAYERS
    SAVE DRAWDOWN FOR ALL LAYERS
    SAVE BUDGET
    PRINT BUDGET
 UBDSV1 SAVING "         STORAGE" ON UNIT   9 AT TIME STEP156, STRESS PERIOD   1
 UBDSV2 SAVING "   CONSTANT HEAD" ON UNIT   9 AT TIME STEP156, STRESS PERIOD   1
 UBDSV1 SAVING "FLOW RIGHT FACE " ON UNIT   9 AT TIME STEP156, STRESS PERIOD   1
 UBDSV1 SAVING "FLOW FRONT FACE " ON UNIT   9 AT TIME STEP156, STRESS PERIOD   1
 UBDSV4 SAVING "   RIVER LEAKAGE" ON UNIT   9 AT TIME STEP156, STRESS PERIOD   1
 UBDSV3 SAVING "        RECHARGE" ON UNIT   9 AT TIME STEP156, STRESS PERIOD   1

 HEAD WILL BE SAVED ON UNIT 5037 AT END OF TIME STEP  156, STRESS PERIOD    1

 DRAWDOWN WILL BE SAVED ON UNIT   38 AT END OF TIME STEP  156, STRESS PERIOD    1
1
  VOLUMETRIC BUDGET FOR ENTIRE MODEL AT END OF TIME STEP  156, STRESS PERIOD   1
  ------------------------------------------------------------------------------

     CUMULATIVE VOLUMES      L**3       RATES FOR THIS TIME STEP      L**3/T
     ------------------                 ------------------------

           IN:                                      IN:
           ---                                      ---
             STORAGE =     7571468.0000               STORAGE =       28948.0762
       CONSTANT HEAD =           0.0000         CONSTANT HEAD =           0.0000
       RIVER LEAKAGE =      914516.4375         RIVER LEAKAGE =        5814.3691
            RECHARGE =     3128304.0000              RECHARGE =         184.0346

            TOTAL IN =    11614288.0000              TOTAL IN =       34946.4805

          OUT:                                     OUT:
          ----                                     ----
             STORAGE =     4942555.5000               STORAGE =        2843.1523
       CONSTANT HEAD =           0.0000         CONSTANT HEAD =           0.0000
       RIVER LEAKAGE =     6665601.0000         RIVER LEAKAGE =       31973.2305
            RECHARGE =           0.0000              RECHARGE =           0.0000

           TOTAL OUT =    11608156.0000             TOTAL OUT =       34816.3828

            IN - OUT =        6132.0000              IN - OUT =         130.0977

 PERCENT DISCREPANCY =           0.05     PERCENT DISCREPANCY =           0.37






         TIME SUMMARY AT END OF TIME STEP  156 IN STRESS PERIOD    1
                    SECONDS     MINUTES      HOURS       DAYS        YEARS
                    -----------------------------------------------------------
   TIME STEP LENGTH  86400.      1440.0      24.000      1.0000     2.73785E-03
 STRESS PERIOD TIME 1.34784E+07 2.24640E+05  3744.0      156.00     0.42710    
         TOTAL TIME 1.34784E+07 2.24640E+05  3744.0      156.00     0.42710    
1
 
 SOLVING FOR HEAD 
                                                   Max.-Head-Change                        Max.-Flux-Residual
  Residual-Control   Outer-Iter.   Inner-Iter.     Column Row Layer    Max.-Head-Change    Column Row Layer    Max.-Flux-Residual            L2-New               L2-Old           Solver-Max-Delh
          0                 1           2            19    1     1       0.1313808053E+00      29    3    1      -0.3187286399E+03      0.2147259159E+04      0.1077421543E+02      0.1313808053E+00
          0                 2           2            19    1     1      -0.1134648510E-01      29    3    1       0.3187009405E+02      0.2146814533E+03      0.2147259159E+04     -0.1134648510E-01

    ------------------------------------------------
       NWT REQUIRED            2 OUTER ITERATIONS 
       AND A TOTAL OF          4 INNER ITERATIONS.
    ------------------------------------------------

 OUTPUT CONTROL FOR STRESS PERIOD    1   TIME STEP  157
    SAVE HEAD FOR ALL LAYERS
    SAVE DRAWDOWN FOR ALL LAYERS
    SAVE BUDGET
    PRINT BUDGET
 UBDSV1 SAVING "         STORAGE" ON UNIT   9 AT TIME STEP157, STRESS PERIOD   1
 UBDSV2 SAVING "   CONSTANT HEAD" ON UNIT   9 AT TIME STEP157, STRESS PERIOD   1
 UBDSV1 SAVING "FLOW RIGHT FACE " ON UNIT   9 AT TIME STEP157, STRESS PERIOD   1
 UBDSV1 SAVING "FLOW FRONT FACE " ON UNIT   9 AT TIME STEP157, STRESS PERIOD   1
 UBDSV4 SAVING "   RIVER LEAKAGE" ON UNIT   9 AT TIME STEP157, STRESS PERIOD   1
 UBDSV3 SAVING "        RECHARGE" ON UNIT   9 AT TIME STEP157, STRESS PERIOD   1

 HEAD WILL BE SAVED ON UNIT 5037 AT END OF TIME STEP  157, STRESS PERIOD    1

 DRAWDOWN WILL BE SAVED ON UNIT   38 AT END OF TIME STEP  157, STRESS PERIOD    1
1
  VOLUMETRIC BUDGET FOR ENTIRE MODEL AT END OF TIME STEP  157, STRESS PERIOD   1
  ------------------------------------------------------------------------------

     CUMULATIVE VOLUMES      L**3       RATES FOR THIS TIME STEP      L**3/T
     ------------------                 ------------------------

           IN:                                      IN:
           ---                                      ---
             STORAGE =     7600335.0000               STORAGE =       28867.2109
       CONSTANT HEAD =           0.0000         CONSTANT HEAD =           0.0000
       RIVER LEAKAGE =      920337.6875         RIVER LEAKAGE =        5821.2720
            RECHARGE =     3128484.7500              RECHARGE =         180.7149

            TOTAL IN =    11649158.0000              TOTAL IN =       34869.1992

          OUT:                                     OUT:
          ----                                     ----
             STORAGE =     4945365.0000               STORAGE =        2809.5823
       CONSTANT HEAD =           0.0000         CONSTANT HEAD =           0.0000
       RIVER LEAKAGE =     6697531.0000         RIVER LEAKAGE =       31929.7520
            RECHARGE =           0.0000              RECHARGE =           0.0000

           TOTAL OUT =    11642896.0000             TOTAL OUT =       34739.3359

            IN - OUT =        6262.0000              IN - OUT =         129.8633

 PERCENT DISCREPANCY =           0.05     PERCENT DISCREPANCY =           0.37






         TIME SUMMARY AT END OF TIME STEP  157 IN STRESS PERIOD    1
                    SECONDS     MINUTES      HOURS       DAYS        YEARS
                    -----------------------------------------------------------
   TIME STEP LENGTH  86400.      1440.0      24.000      1.0000     2.73785E-03
 STRESS PERIOD TIME 1.35648E+07 2.26080E+05  3768.0      157.00     0.42984    
         TOTAL TIME 1.35648E+07 2.26080E+05  3768.0      157.00     0.42984    
1
 
 SOLVING FOR HEAD 
                                                   Max.-Head-Change                        Max.-Flux-Residual
  Residual-Control   Outer-Iter.   Inner-Iter.     Column Row Layer    Max.-Head-Change    Column Row Layer    Max.-Flux-Residual            L2-New               L2-Old           Solver-Max-Delh
          0                 1           2            19    1     1       0.1097153539E+00      29    3    1      -0.3185087472E+03      0.2181870946E+04      0.1073373574E+02      0.1097153539E+00
          0                 2           2            19    1     1      -0.9475387102E-02      29    3    1       0.3184810522E+02      0.2181446514E+03      0.2181870946E+04     -0.9475387102E-02

    ------------------------------------------------
       NWT REQUIRED            2 OUTER ITERATIONS 
       AND A TOTAL OF          4 INNER ITERATIONS.
    ------------------------------------------------

 OUTPUT CONTROL FOR STRESS PERIOD    1   TIME STEP  158
    SAVE HEAD FOR ALL LAYERS
    SAVE DRAWDOWN FOR ALL LAYERS
    SAVE BUDGET
    PRINT BUDGET
 UBDSV1 SAVING "         STORAGE" ON UNIT   9 AT TIME STEP158, STRESS PERIOD   1
 UBDSV2 SAVING "   CONSTANT HEAD" ON UNIT   9 AT TIME STEP158, STRESS PERIOD   1
 UBDSV1 SAVING "FLOW RIGHT FACE " ON UNIT   9 AT TIME STEP158, STRESS PERIOD   1
 UBDSV1 SAVING "FLOW FRONT FACE " ON UNIT   9 AT TIME STEP158, STRESS PERIOD   1
 UBDSV4 SAVING "   RIVER LEAKAGE" ON UNIT   9 AT TIME STEP158, STRESS PERIOD   1
 UBDSV3 SAVING "        RECHARGE" ON UNIT   9 AT TIME STEP158, STRESS PERIOD   1

 HEAD WILL BE SAVED ON UNIT 5037 AT END OF TIME STEP  158, STRESS PERIOD    1

 DRAWDOWN WILL BE SAVED ON UNIT   38 AT END OF TIME STEP  158, STRESS PERIOD    1
1
  VOLUMETRIC BUDGET FOR ENTIRE MODEL AT END OF TIME STEP  158, STRESS PERIOD   1
  ------------------------------------------------------------------------------

     CUMULATIVE VOLUMES      L**3       RATES FOR THIS TIME STEP      L**3/T
     ------------------                 ------------------------

           IN:                                      IN:
           ---                                      ---
             STORAGE =     7629122.5000               STORAGE =       28787.4688
       CONSTANT HEAD =           0.0000         CONSTANT HEAD =           0.0000
       RIVER LEAKAGE =      926165.8125         RIVER LEAKAGE =        5828.1265
            RECHARGE =     3128662.2500              RECHARGE =         177.4957

            TOTAL IN =    11683950.0000              TOTAL IN =       34793.0898

          OUT:                                     OUT:
          ----                                     ----
             STORAGE =     4948277.5000               STORAGE =        2912.2991
       CONSTANT HEAD =           0.0000         CONSTANT HEAD =           0.0000
       RIVER LEAKAGE =     6729286.5000         RIVER LEAKAGE =       31755.5977
            RECHARGE =           0.0000              RECHARGE =           0.0000

           TOTAL OUT =    11677564.0000             TOTAL OUT =       34667.8984

            IN - OUT =        6386.0000              IN - OUT =         125.1914

 PERCENT DISCREPANCY =           0.05     PERCENT DISCREPANCY =           0.36






         TIME SUMMARY AT END OF TIME STEP  158 IN STRESS PERIOD    1
                    SECONDS     MINUTES      HOURS       DAYS        YEARS
                    -----------------------------------------------------------
   TIME STEP LENGTH  86400.      1440.0      24.000      1.0000     2.73785E-03
 STRESS PERIOD TIME 1.36512E+07 2.27520E+05  3792.0      158.00     0.43258    
         TOTAL TIME 1.36512E+07 2.27520E+05  3792.0      158.00     0.43258    
1
 
 SOLVING FOR HEAD 
                                                   Max.-Head-Change                        Max.-Flux-Residual
  Residual-Control   Outer-Iter.   Inner-Iter.     Column Row Layer    Max.-Head-Change    Column Row Layer    Max.-Flux-Residual            L2-New               L2-Old           Solver-Max-Delh
          0                 1           2            19    1     1       0.9221140593E-01      29    3    1      -0.3182830705E+03      0.2162973545E+04      0.1090690558E+02      0.9221140593E-01
          0                 2           2            20    1     1       0.1167983721E+00      40   16    1       0.5196377221E+02      0.2236425334E+03      0.2162973545E+04      0.1167983721E+00
          0                 3           2            20    1     1      -0.1008749669E-01      40   16    1       0.2597927663E+01      0.1140849288E+02      0.2236425334E+03     -0.1008749669E-01

    ------------------------------------------------
       NWT REQUIRED            3 OUTER ITERATIONS 
       AND A TOTAL OF          6 INNER ITERATIONS.
    ------------------------------------------------

 OUTPUT CONTROL FOR STRESS PERIOD    1   TIME STEP  159
    SAVE HEAD FOR ALL LAYERS
    SAVE DRAWDOWN FOR ALL LAYERS
    SAVE BUDGET
    PRINT BUDGET
 UBDSV1 SAVING "         STORAGE" ON UNIT   9 AT TIME STEP159, STRESS PERIOD   1
 UBDSV2 SAVING "   CONSTANT HEAD" ON UNIT   9 AT TIME STEP159, STRESS PERIOD   1
 UBDSV1 SAVING "FLOW RIGHT FACE " ON UNIT   9 AT TIME STEP159, STRESS PERIOD   1
 UBDSV1 SAVING "FLOW FRONT FACE " ON UNIT   9 AT TIME STEP159, STRESS PERIOD   1
 UBDSV4 SAVING "   RIVER LEAKAGE" ON UNIT   9 AT TIME STEP159, STRESS PERIOD   1
 UBDSV3 SAVING "        RECHARGE" ON UNIT   9 AT TIME STEP159, STRESS PERIOD   1

 HEAD WILL BE SAVED ON UNIT 5037 AT END OF TIME STEP  159, STRESS PERIOD    1

 DRAWDOWN WILL BE SAVED ON UNIT   38 AT END OF TIME STEP  159, STRESS PERIOD    1
1
  VOLUMETRIC BUDGET FOR ENTIRE MODEL AT END OF TIME STEP  159, STRESS PERIOD   1
  ------------------------------------------------------------------------------

     CUMULATIVE VOLUMES      L**3       RATES FOR THIS TIME STEP      L**3/T
     ------------------                 ------------------------

           IN:                                      IN:
           ---                                      ---
             STORAGE =     7657805.0000               STORAGE =       28682.2949
       CONSTANT HEAD =           0.0000         CONSTANT HEAD =           0.0000
       RIVER LEAKAGE =      932000.7500         RIVER LEAKAGE =        5834.9287
            RECHARGE =     3128836.5000              RECHARGE =         174.3726

            TOTAL IN =    11718642.0000              TOTAL IN =       34691.5938

          OUT:                                     OUT:
          ----                                     ----
             STORAGE =     4951007.0000               STORAGE =        2729.7305
       CONSTANT HEAD =           0.0000         CONSTANT HEAD =           0.0000
       RIVER LEAKAGE =     6761241.5000         RIVER LEAKAGE =       31955.1426
            RECHARGE =           0.0000              RECHARGE =           0.0000

           TOTAL OUT =    11712248.0000             TOTAL OUT =       34684.8750

            IN - OUT =        6394.0000              IN - OUT =           6.7188

 PERCENT DISCREPANCY =           0.05     PERCENT DISCREPANCY =           0.02






         TIME SUMMARY AT END OF TIME STEP  159 IN STRESS PERIOD    1
                    SECONDS     MINUTES      HOURS       DAYS        YEARS
                    -----------------------------------------------------------
   TIME STEP LENGTH  86400.      1440.0      24.000      1.0000     2.73785E-03
 STRESS PERIOD TIME 1.37376E+07 2.28960E+05  3816.0      159.00     0.43532    
         TOTAL TIME 1.37376E+07 2.28960E+05  3816.0      159.00     0.43532    
1
 
 SOLVING FOR HEAD 
                                                   Max.-Head-Change                        Max.-Flux-Residual
  Residual-Control   Outer-Iter.   Inner-Iter.     Column Row Layer    Max.-Head-Change    Column Row Layer    Max.-Flux-Residual            L2-New               L2-Old           Solver-Max-Delh
          0                 1           2            20    1     1       0.3211973664E+00      29    3    1      -0.3180640831E+03      0.2123861063E+04      0.1140849288E+02      0.3211973664E+00
          0                 2           2            20    1     1      -0.2773283866E-01      29    3    1       0.3180363945E+02      0.2123426542E+03      0.2123861063E+04     -0.2773283866E-01

    ------------------------------------------------
       NWT REQUIRED            2 OUTER ITERATIONS 
       AND A TOTAL OF          4 INNER ITERATIONS.
    ------------------------------------------------

 OUTPUT CONTROL FOR STRESS PERIOD    1   TIME STEP  160
    SAVE HEAD FOR ALL LAYERS
    SAVE DRAWDOWN FOR ALL LAYERS
    SAVE BUDGET
    PRINT BUDGET
 UBDSV1 SAVING "         STORAGE" ON UNIT   9 AT TIME STEP160, STRESS PERIOD   1
 UBDSV2 SAVING "   CONSTANT HEAD" ON UNIT   9 AT TIME STEP160, STRESS PERIOD   1
 UBDSV1 SAVING "FLOW RIGHT FACE " ON UNIT   9 AT TIME STEP160, STRESS PERIOD   1
 UBDSV1 SAVING "FLOW FRONT FACE " ON UNIT   9 AT TIME STEP160, STRESS PERIOD   1
 UBDSV4 SAVING "   RIVER LEAKAGE" ON UNIT   9 AT TIME STEP160, STRESS PERIOD   1
 UBDSV3 SAVING "        RECHARGE" ON UNIT   9 AT TIME STEP160, STRESS PERIOD   1

 HEAD WILL BE SAVED ON UNIT 5037 AT END OF TIME STEP  160, STRESS PERIOD    1

 DRAWDOWN WILL BE SAVED ON UNIT   38 AT END OF TIME STEP  160, STRESS PERIOD    1
1
  VOLUMETRIC BUDGET FOR ENTIRE MODEL AT END OF TIME STEP  160, STRESS PERIOD   1
  ------------------------------------------------------------------------------

     CUMULATIVE VOLUMES      L**3       RATES FOR THIS TIME STEP      L**3/T
     ------------------                 ------------------------

           IN:                                      IN:
           ---                                      ---
             STORAGE =     7686444.5000               STORAGE =       28639.4199
       CONSTANT HEAD =           0.0000         CONSTANT HEAD =           0.0000
       RIVER LEAKAGE =      937842.5000         RIVER LEAKAGE =        5841.7520
            RECHARGE =     3129007.7500              RECHARGE =         171.3416

            TOTAL IN =    11753295.0000              TOTAL IN =       34652.5117

          OUT:                                     OUT:
          ----                                     ----
             STORAGE =     4953713.0000               STORAGE =        2705.8201
       CONSTANT HEAD =           0.0000         CONSTANT HEAD =           0.0000
       RIVER LEAKAGE =     6793058.5000         RIVER LEAKAGE =       31816.9922
            RECHARGE =           0.0000              RECHARGE =           0.0000

           TOTAL OUT =    11746772.0000             TOTAL OUT =       34522.8125

            IN - OUT =        6523.0000              IN - OUT =         129.6992

 PERCENT DISCREPANCY =           0.06     PERCENT DISCREPANCY =           0.37






         TIME SUMMARY AT END OF TIME STEP  160 IN STRESS PERIOD    1
                    SECONDS     MINUTES      HOURS       DAYS        YEARS
                    -----------------------------------------------------------
   TIME STEP LENGTH  86400.      1440.0      24.000      1.0000     2.73785E-03
 STRESS PERIOD TIME 1.38240E+07 2.30400E+05  3840.0      160.00     0.43806    
         TOTAL TIME 1.38240E+07 2.30400E+05  3840.0      160.00     0.43806    
1
 
 SOLVING FOR HEAD 
                                                   Max.-Head-Change                        Max.-Flux-Residual
  Residual-Control   Outer-Iter.   Inner-Iter.     Column Row Layer    Max.-Head-Change    Column Row Layer    Max.-Flux-Residual            L2-New               L2-Old           Solver-Max-Delh
          0                 1           2            20    1     1       0.2563115193E+00      29    3    1      -0.3178526907E+03      0.2114784215E+04      0.1061680337E+02      0.2563115193E+00
          0                 2           2            20    1     1      -0.2213077522E-01      29    3    1       0.3178250067E+02      0.2114345396E+03      0.2114784215E+04     -0.2213077522E-01

    ------------------------------------------------
       NWT REQUIRED            2 OUTER ITERATIONS 
       AND A TOTAL OF          4 INNER ITERATIONS.
    ------------------------------------------------

 OUTPUT CONTROL FOR STRESS PERIOD    1   TIME STEP  161
    SAVE HEAD FOR ALL LAYERS
    SAVE DRAWDOWN FOR ALL LAYERS
    SAVE BUDGET
    PRINT BUDGET
 UBDSV1 SAVING "         STORAGE" ON UNIT   9 AT TIME STEP161, STRESS PERIOD   1
 UBDSV2 SAVING "   CONSTANT HEAD" ON UNIT   9 AT TIME STEP161, STRESS PERIOD   1
 UBDSV1 SAVING "FLOW RIGHT FACE " ON UNIT   9 AT TIME STEP161, STRESS PERIOD   1
 UBDSV1 SAVING "FLOW FRONT FACE " ON UNIT   9 AT TIME STEP161, STRESS PERIOD   1
 UBDSV4 SAVING "   RIVER LEAKAGE" ON UNIT   9 AT TIME STEP161, STRESS PERIOD   1
 UBDSV3 SAVING "        RECHARGE" ON UNIT   9 AT TIME STEP161, STRESS PERIOD   1

 HEAD WILL BE SAVED ON UNIT 5037 AT END OF TIME STEP  161, STRESS PERIOD    1

 DRAWDOWN WILL BE SAVED ON UNIT   38 AT END OF TIME STEP  161, STRESS PERIOD    1
1
  VOLUMETRIC BUDGET FOR ENTIRE MODEL AT END OF TIME STEP  161, STRESS PERIOD   1
  ------------------------------------------------------------------------------

     CUMULATIVE VOLUMES      L**3       RATES FOR THIS TIME STEP      L**3/T
     ------------------                 ------------------------

           IN:                                      IN:
           ---                                      ---
             STORAGE =     7714987.0000               STORAGE =       28542.3320
       CONSTANT HEAD =           0.0000         CONSTANT HEAD =           0.0000
       RIVER LEAKAGE =      943691.0000         RIVER LEAKAGE =        5848.5200
            RECHARGE =     3129176.2500              RECHARGE =         168.3987

            TOTAL IN =    11787854.0000              TOTAL IN =       34559.2500

          OUT:                                     OUT:
          ----                                     ----
             STORAGE =     4956383.5000               STORAGE =        2670.6086
       CONSTANT HEAD =           0.0000         CONSTANT HEAD =           0.0000
       RIVER LEAKAGE =     6824818.0000         RIVER LEAKAGE =       31759.6348
            RECHARGE =           0.0000              RECHARGE =           0.0000

           TOTAL OUT =    11781202.0000             TOTAL OUT =       34430.2422

            IN - OUT =        6652.0000              IN - OUT =         129.0078

 PERCENT DISCREPANCY =           0.06     PERCENT DISCREPANCY =           0.37






         TIME SUMMARY AT END OF TIME STEP  161 IN STRESS PERIOD    1
                    SECONDS     MINUTES      HOURS       DAYS        YEARS
                    -----------------------------------------------------------
   TIME STEP LENGTH  86400.      1440.0      24.000      1.0000     2.73785E-03
 STRESS PERIOD TIME 1.39104E+07 2.31840E+05  3864.0      161.00     0.44079    
         TOTAL TIME 1.39104E+07 2.31840E+05  3864.0      161.00     0.44079    
1
 
 SOLVING FOR HEAD 
                                                   Max.-Head-Change                        Max.-Flux-Residual
  Residual-Control   Outer-Iter.   Inner-Iter.     Column Row Layer    Max.-Head-Change    Column Row Layer    Max.-Flux-Residual            L2-New               L2-Old           Solver-Max-Delh
          0                 1           2            20    1     1       0.2066835491E+00      29    3    1      -0.3176487257E+03      0.2106569447E+04      0.1057140080E+02      0.2066835491E+00
          0                 2           2            20    1     1      -0.1769836602E-01      29    3    1       0.3176210407E+02      0.2106079187E+03      0.2106569447E+04     -0.1769836602E-01

    ------------------------------------------------
       NWT REQUIRED            2 OUTER ITERATIONS 
       AND A TOTAL OF          4 INNER ITERATIONS.
    ------------------------------------------------

 OUTPUT CONTROL FOR STRESS PERIOD    1   TIME STEP  162
    SAVE HEAD FOR ALL LAYERS
    SAVE DRAWDOWN FOR ALL LAYERS
    SAVE BUDGET
    PRINT BUDGET
 UBDSV1 SAVING "         STORAGE" ON UNIT   9 AT TIME STEP162, STRESS PERIOD   1
 UBDSV2 SAVING "   CONSTANT HEAD" ON UNIT   9 AT TIME STEP162, STRESS PERIOD   1
 UBDSV1 SAVING "FLOW RIGHT FACE " ON UNIT   9 AT TIME STEP162, STRESS PERIOD   1
 UBDSV1 SAVING "FLOW FRONT FACE " ON UNIT   9 AT TIME STEP162, STRESS PERIOD   1
 UBDSV4 SAVING "   RIVER LEAKAGE" ON UNIT   9 AT TIME STEP162, STRESS PERIOD   1
 UBDSV3 SAVING "        RECHARGE" ON UNIT   9 AT TIME STEP162, STRESS PERIOD   1

 HEAD WILL BE SAVED ON UNIT 5037 AT END OF TIME STEP  162, STRESS PERIOD    1

 DRAWDOWN WILL BE SAVED ON UNIT   38 AT END OF TIME STEP  162, STRESS PERIOD    1
1
  VOLUMETRIC BUDGET FOR ENTIRE MODEL AT END OF TIME STEP  162, STRESS PERIOD   1
  ------------------------------------------------------------------------------

     CUMULATIVE VOLUMES      L**3       RATES FOR THIS TIME STEP      L**3/T
     ------------------                 ------------------------

           IN:                                      IN:
           ---                                      ---
             STORAGE =     7743446.5000               STORAGE =       28459.4414
       CONSTANT HEAD =           0.0000         CONSTANT HEAD =           0.0000
       RIVER LEAKAGE =      949546.2500         RIVER LEAKAGE =        5855.2412
            RECHARGE =     3129341.7500              RECHARGE =         165.5401

            TOTAL IN =    11822335.0000              TOTAL IN =       34480.2227

          OUT:                                     OUT:
          ----                                     ----
             STORAGE =     4959021.0000               STORAGE =        2637.2996
       CONSTANT HEAD =           0.0000         CONSTANT HEAD =           0.0000
       RIVER LEAKAGE =     6856532.0000         RIVER LEAKAGE =       31714.2227
            RECHARGE =           0.0000              RECHARGE =           0.0000

           TOTAL OUT =    11815553.0000             TOTAL OUT =       34351.5234

            IN - OUT =        6782.0000              IN - OUT =         128.6992

 PERCENT DISCREPANCY =           0.06     PERCENT DISCREPANCY =           0.37






         TIME SUMMARY AT END OF TIME STEP  162 IN STRESS PERIOD    1
                    SECONDS     MINUTES      HOURS       DAYS        YEARS
                    -----------------------------------------------------------
   TIME STEP LENGTH  86400.      1440.0      24.000      1.0000     2.73785E-03
 STRESS PERIOD TIME 1.39968E+07 2.33280E+05  3888.0      162.00     0.44353    
         TOTAL TIME 1.39968E+07 2.33280E+05  3888.0      162.00     0.44353    
1
 
 SOLVING FOR HEAD 
                                                   Max.-Head-Change                        Max.-Flux-Residual
  Residual-Control   Outer-Iter.   Inner-Iter.     Column Row Layer    Max.-Head-Change    Column Row Layer    Max.-Flux-Residual            L2-New               L2-Old           Solver-Max-Delh
          0                 1           2            20    1     1       0.1690362203E+00      29    3    1      -0.3174369792E+03      0.2098549018E+04      0.1053007351E+02      0.1690362203E+00
          0                 2           2            20    1     1      -0.1330919063E-01      29    3    1       0.3174093004E+02      0.2098088963E+03      0.2098549018E+04     -0.1330919063E-01

    ------------------------------------------------
       NWT REQUIRED            2 OUTER ITERATIONS 
       AND A TOTAL OF          4 INNER ITERATIONS.
    ------------------------------------------------

 OUTPUT CONTROL FOR STRESS PERIOD    1   TIME STEP  163
    SAVE HEAD FOR ALL LAYERS
    SAVE DRAWDOWN FOR ALL LAYERS
    SAVE BUDGET
    PRINT BUDGET
 UBDSV1 SAVING "         STORAGE" ON UNIT   9 AT TIME STEP163, STRESS PERIOD   1
 UBDSV2 SAVING "   CONSTANT HEAD" ON UNIT   9 AT TIME STEP163, STRESS PERIOD   1
 UBDSV1 SAVING "FLOW RIGHT FACE " ON UNIT   9 AT TIME STEP163, STRESS PERIOD   1
 UBDSV1 SAVING "FLOW FRONT FACE " ON UNIT   9 AT TIME STEP163, STRESS PERIOD   1
 UBDSV4 SAVING "   RIVER LEAKAGE" ON UNIT   9 AT TIME STEP163, STRESS PERIOD   1
 UBDSV3 SAVING "        RECHARGE" ON UNIT   9 AT TIME STEP163, STRESS PERIOD   1

 HEAD WILL BE SAVED ON UNIT 5037 AT END OF TIME STEP  163, STRESS PERIOD    1

 DRAWDOWN WILL BE SAVED ON UNIT   38 AT END OF TIME STEP  163, STRESS PERIOD    1
1
  VOLUMETRIC BUDGET FOR ENTIRE MODEL AT END OF TIME STEP  163, STRESS PERIOD   1
  ------------------------------------------------------------------------------

     CUMULATIVE VOLUMES      L**3       RATES FOR THIS TIME STEP      L**3/T
     ------------------                 ------------------------

           IN:                                      IN:
           ---                                      ---
             STORAGE =     7771826.5000               STORAGE =       28380.2266
       CONSTANT HEAD =           0.0000         CONSTANT HEAD =           0.0000
       RIVER LEAKAGE =      955408.1875         RIVER LEAKAGE =        5861.9312
            RECHARGE =     3129504.5000              RECHARGE =         162.7626

            TOTAL IN =    11856740.0000              TOTAL IN =       34404.9180

          OUT:                                     OUT:
          ----                                     ----
             STORAGE =     4961626.5000               STORAGE =        2605.5098
       CONSTANT HEAD =           0.0000         CONSTANT HEAD =           0.0000
       RIVER LEAKAGE =     6888203.0000         RIVER LEAKAGE =       31670.9551
            RECHARGE =           0.0000              RECHARGE =           0.0000

           TOTAL OUT =    11849830.0000             TOTAL OUT =       34276.4648

            IN - OUT =        6910.0000              IN - OUT =         128.4531

 PERCENT DISCREPANCY =           0.06     PERCENT DISCREPANCY =           0.37






         TIME SUMMARY AT END OF TIME STEP  163 IN STRESS PERIOD    1
                    SECONDS     MINUTES      HOURS       DAYS        YEARS
                    -----------------------------------------------------------
   TIME STEP LENGTH  86400.      1440.0      24.000      1.0000     2.73785E-03
 STRESS PERIOD TIME 1.40832E+07 2.34720E+05  3912.0      163.00     0.44627    
         TOTAL TIME 1.40832E+07 2.34720E+05  3912.0      163.00     0.44627    
1
 
 SOLVING FOR HEAD 
                                                   Max.-Head-Change                        Max.-Flux-Residual
  Residual-Control   Outer-Iter.   Inner-Iter.     Column Row Layer    Max.-Head-Change    Column Row Layer    Max.-Flux-Residual            L2-New               L2-Old           Solver-Max-Delh
          0                 1           2            20    1     1       0.1420091800E+00      29    3    1      -0.3172324362E+03      0.2090676159E+04      0.1049012517E+02      0.1420091800E+00
          0                 2           2            20    1     1      -0.1226416974E-01      29    3    1       0.3172047582E+02      0.2088952128E+03      0.2090676159E+04     -0.1226416974E-01

    ------------------------------------------------
       NWT REQUIRED            2 OUTER ITERATIONS 
       AND A TOTAL OF          4 INNER ITERATIONS.
    ------------------------------------------------

 OUTPUT CONTROL FOR STRESS PERIOD    1   TIME STEP  164
    SAVE HEAD FOR ALL LAYERS
    SAVE DRAWDOWN FOR ALL LAYERS
    SAVE BUDGET
    PRINT BUDGET
 UBDSV1 SAVING "         STORAGE" ON UNIT   9 AT TIME STEP164, STRESS PERIOD   1
 UBDSV2 SAVING "   CONSTANT HEAD" ON UNIT   9 AT TIME STEP164, STRESS PERIOD   1
 UBDSV1 SAVING "FLOW RIGHT FACE " ON UNIT   9 AT TIME STEP164, STRESS PERIOD   1
 UBDSV1 SAVING "FLOW FRONT FACE " ON UNIT   9 AT TIME STEP164, STRESS PERIOD   1
 UBDSV4 SAVING "   RIVER LEAKAGE" ON UNIT   9 AT TIME STEP164, STRESS PERIOD   1
 UBDSV3 SAVING "        RECHARGE" ON UNIT   9 AT TIME STEP164, STRESS PERIOD   1

 HEAD WILL BE SAVED ON UNIT 5037 AT END OF TIME STEP  164, STRESS PERIOD    1

 DRAWDOWN WILL BE SAVED ON UNIT   38 AT END OF TIME STEP  164, STRESS PERIOD    1
1
  VOLUMETRIC BUDGET FOR ENTIRE MODEL AT END OF TIME STEP  164, STRESS PERIOD   1
  ------------------------------------------------------------------------------

     CUMULATIVE VOLUMES      L**3       RATES FOR THIS TIME STEP      L**3/T
     ------------------                 ------------------------

           IN:                                      IN:
           ---                                      ---
             STORAGE =     7800130.0000               STORAGE =       28303.5898
       CONSTANT HEAD =           0.0000         CONSTANT HEAD =           0.0000
       RIVER LEAKAGE =      961276.7500         RIVER LEAKAGE =        5868.5903
            RECHARGE =     3129664.5000              RECHARGE =         160.0626

            TOTAL IN =    11891072.0000              TOTAL IN =       34332.2422

          OUT:                                     OUT:
          ----                                     ----
             STORAGE =     4964116.5000               STORAGE =        2490.2002
       CONSTANT HEAD =           0.0000         CONSTANT HEAD =           0.0000
       RIVER LEAKAGE =     6919831.0000         RIVER LEAKAGE =       31628.2246
            RECHARGE =           0.0000              RECHARGE =           0.0000

           TOTAL OUT =    11883948.0000             TOTAL OUT =       34118.4258

            IN - OUT =        7124.0000              IN - OUT =         213.8164

 PERCENT DISCREPANCY =           0.06     PERCENT DISCREPANCY =           0.62






         TIME SUMMARY AT END OF TIME STEP  164 IN STRESS PERIOD    1
                    SECONDS     MINUTES      HOURS       DAYS        YEARS
                    -----------------------------------------------------------
   TIME STEP LENGTH  86400.      1440.0      24.000      1.0000     2.73785E-03
 STRESS PERIOD TIME 1.41696E+07 2.36160E+05  3936.0      164.00     0.44901    
         TOTAL TIME 1.41696E+07 2.36160E+05  3936.0      164.00     0.44901    
1
 
 SOLVING FOR HEAD 
                                                   Max.-Head-Change                        Max.-Flux-Residual
  Residual-Control   Outer-Iter.   Inner-Iter.     Column Row Layer    Max.-Head-Change    Column Row Layer    Max.-Flux-Residual            L2-New               L2-Old           Solver-Max-Delh
          0                 1           2            20    1     1       0.1188975660E+00      29    3    1      -0.3170337219E+03      0.2082960560E+04      0.8588830522E+02      0.1188975660E+00
          0                 2           2            11   10     1       0.2957928864E+00      11   10    1       0.5829652321E+02      0.2158361482E+03      0.2082960560E+04      0.2957928864E+00
          1                 2           0            11   10     1       0.2070550170E+00      24   16    1       0.2936127449E+03      0.3073183283E+03      0.2158361482E+03      0.2957928864E+00
          0                 3           2            11   10     1       0.6803237100E-01      24   16    1       0.2016561412E+03      0.2221073866E+03      0.3073183283E+03      0.6803237100E-01

    ------------------------------------------------
       NWT REQUIRED            3 OUTER ITERATIONS 
       AND A TOTAL OF          6 INNER ITERATIONS.
    ------------------------------------------------

 OUTPUT CONTROL FOR STRESS PERIOD    1   TIME STEP  165
    SAVE HEAD FOR ALL LAYERS
    SAVE DRAWDOWN FOR ALL LAYERS
    SAVE BUDGET
    PRINT BUDGET
 UBDSV1 SAVING "         STORAGE" ON UNIT   9 AT TIME STEP165, STRESS PERIOD   1
 UBDSV2 SAVING "   CONSTANT HEAD" ON UNIT   9 AT TIME STEP165, STRESS PERIOD   1
 UBDSV1 SAVING "FLOW RIGHT FACE " ON UNIT   9 AT TIME STEP165, STRESS PERIOD   1
 UBDSV1 SAVING "FLOW FRONT FACE " ON UNIT   9 AT TIME STEP165, STRESS PERIOD   1
 UBDSV4 SAVING "   RIVER LEAKAGE" ON UNIT   9 AT TIME STEP165, STRESS PERIOD   1
 UBDSV3 SAVING "        RECHARGE" ON UNIT   9 AT TIME STEP165, STRESS PERIOD   1

 HEAD WILL BE SAVED ON UNIT 5037 AT END OF TIME STEP  165, STRESS PERIOD    1

 DRAWDOWN WILL BE SAVED ON UNIT   38 AT END OF TIME STEP  165, STRESS PERIOD    1
1
  VOLUMETRIC BUDGET FOR ENTIRE MODEL AT END OF TIME STEP  165, STRESS PERIOD   1
  ------------------------------------------------------------------------------

     CUMULATIVE VOLUMES      L**3       RATES FOR THIS TIME STEP      L**3/T
     ------------------                 ------------------------

           IN:                                      IN:
           ---                                      ---
             STORAGE =     7828257.0000               STORAGE =       28127.2148
       CONSTANT HEAD =           0.0000         CONSTANT HEAD =           0.0000
       RIVER LEAKAGE =      967151.9375         RIVER LEAKAGE =        5875.1831
            RECHARGE =     3129822.0000              RECHARGE =         157.4371

            TOTAL IN =    11925231.0000              TOTAL IN =       34159.8359

          OUT:                                     OUT:
          ----                                     ----
             STORAGE =     4966601.5000               STORAGE =        2485.1997
       CONSTANT HEAD =           0.0000         CONSTANT HEAD =           0.0000
       RIVER LEAKAGE =     6951417.0000         RIVER LEAKAGE =       31585.8906
            RECHARGE =           0.0000              RECHARGE =           0.0000

           TOTAL OUT =    11918018.0000             TOTAL OUT =       34071.0898

            IN - OUT =        7213.0000              IN - OUT =          88.7461

 PERCENT DISCREPANCY =           0.06     PERCENT DISCREPANCY =           0.26






         TIME SUMMARY AT END OF TIME STEP  165 IN STRESS PERIOD    1
                    SECONDS     MINUTES      HOURS       DAYS        YEARS
                    -----------------------------------------------------------
   TIME STEP LENGTH  86400.      1440.0      24.000      1.0000     2.73785E-03
 STRESS PERIOD TIME 1.42560E+07 2.37600E+05  3960.0      165.00     0.45175    
         TOTAL TIME 1.42560E+07 2.37600E+05  3960.0      165.00     0.45175    
1
 
 SOLVING FOR HEAD 
                                                   Max.-Head-Change                        Max.-Flux-Residual
  Residual-Control   Outer-Iter.   Inner-Iter.     Column Row Layer    Max.-Head-Change    Column Row Layer    Max.-Flux-Residual            L2-New               L2-Old           Solver-Max-Delh
          0                 1           2            11   10     1       0.2659212942E+00      29    3    1      -0.3168243923E+03      0.2074911625E+04      0.3755113418E+02      0.2659212942E+00
          0                 2           2            24   16     1       0.3081473543E+00      24   16    1       0.8180905858E+02      0.2322428811E+03      0.2074911625E+04      0.3081473543E+00
          0                 3           2            24   16     1      -0.2822839366E-01      24   16    1      -0.8839366790E+01      0.1518612973E+02      0.2322428811E+03     -0.2822839366E-01

    ------------------------------------------------
       NWT REQUIRED            3 OUTER ITERATIONS 
       AND A TOTAL OF          6 INNER ITERATIONS.
    ------------------------------------------------

 OUTPUT CONTROL FOR STRESS PERIOD    1   TIME STEP  166
    SAVE HEAD FOR ALL LAYERS
    SAVE DRAWDOWN FOR ALL LAYERS
    SAVE BUDGET
    PRINT BUDGET
 UBDSV1 SAVING "         STORAGE" ON UNIT   9 AT TIME STEP166, STRESS PERIOD   1
 UBDSV2 SAVING "   CONSTANT HEAD" ON UNIT   9 AT TIME STEP166, STRESS PERIOD   1
 UBDSV1 SAVING "FLOW RIGHT FACE " ON UNIT   9 AT TIME STEP166, STRESS PERIOD   1
 UBDSV1 SAVING "FLOW FRONT FACE " ON UNIT   9 AT TIME STEP166, STRESS PERIOD   1
 UBDSV4 SAVING "   RIVER LEAKAGE" ON UNIT   9 AT TIME STEP166, STRESS PERIOD   1
 UBDSV3 SAVING "        RECHARGE" ON UNIT   9 AT TIME STEP166, STRESS PERIOD   1

 HEAD WILL BE SAVED ON UNIT 5037 AT END OF TIME STEP  166, STRESS PERIOD    1

 DRAWDOWN WILL BE SAVED ON UNIT   38 AT END OF TIME STEP  166, STRESS PERIOD    1
1
  VOLUMETRIC BUDGET FOR ENTIRE MODEL AT END OF TIME STEP  166, STRESS PERIOD   1
  ------------------------------------------------------------------------------

     CUMULATIVE VOLUMES      L**3       RATES FOR THIS TIME STEP      L**3/T
     ------------------                 ------------------------

           IN:                                      IN:
           ---                                      ---
             STORAGE =     7856260.0000               STORAGE =       28003.1445
       CONSTANT HEAD =           0.0000         CONSTANT HEAD =           0.0000
       RIVER LEAKAGE =      973033.6875         RIVER LEAKAGE =        5881.7280
            RECHARGE =     3129977.0000              RECHARGE =         154.8832

            TOTAL IN =    11959271.0000              TOTAL IN =       34039.7539

          OUT:                                     OUT:
          ----                                     ----
             STORAGE =     4969091.5000               STORAGE =        2490.1223
       CONSTANT HEAD =           0.0000         CONSTANT HEAD =           0.0000
       RIVER LEAKAGE =     6982961.0000         RIVER LEAKAGE =       31543.8457
            RECHARGE =           0.0000              RECHARGE =           0.0000

           TOTAL OUT =    11952052.0000             TOTAL OUT =       34033.9688

            IN - OUT =        7219.0000              IN - OUT =           5.7852

 PERCENT DISCREPANCY =           0.06     PERCENT DISCREPANCY =           0.02






         TIME SUMMARY AT END OF TIME STEP  166 IN STRESS PERIOD    1
                    SECONDS     MINUTES      HOURS       DAYS        YEARS
                    -----------------------------------------------------------
   TIME STEP LENGTH  86400.      1440.0      24.000      1.0000     2.73785E-03
 STRESS PERIOD TIME 1.43424E+07 2.39040E+05  3984.0      166.00     0.45448    
         TOTAL TIME 1.43424E+07 2.39040E+05  3984.0      166.00     0.45448    
1
 
 SOLVING FOR HEAD 
                                                   Max.-Head-Change                        Max.-Flux-Residual
  Residual-Control   Outer-Iter.   Inner-Iter.     Column Row Layer    Max.-Head-Change    Column Row Layer    Max.-Flux-Residual            L2-New               L2-Old           Solver-Max-Delh
          0                 1           2            24   16     1       0.3994030324E+00      29    3    1      -0.3166248945E+03      0.2065101986E+04      0.1518612973E+02      0.3994030324E+00
          0                 2           2            24   16     1      -0.3449407729E-01      29    3    1       0.3165972266E+02      0.2064693474E+03      0.2065101986E+04     -0.3449407729E-01

    ------------------------------------------------
       NWT REQUIRED            2 OUTER ITERATIONS 
       AND A TOTAL OF          4 INNER ITERATIONS.
    ------------------------------------------------

 OUTPUT CONTROL FOR STRESS PERIOD    1   TIME STEP  167
    SAVE HEAD FOR ALL LAYERS
    SAVE DRAWDOWN FOR ALL LAYERS
    SAVE BUDGET
    PRINT BUDGET
 UBDSV1 SAVING "         STORAGE" ON UNIT   9 AT TIME STEP167, STRESS PERIOD   1
 UBDSV2 SAVING "   CONSTANT HEAD" ON UNIT   9 AT TIME STEP167, STRESS PERIOD   1
 UBDSV1 SAVING "FLOW RIGHT FACE " ON UNIT   9 AT TIME STEP167, STRESS PERIOD   1
 UBDSV1 SAVING "FLOW FRONT FACE " ON UNIT   9 AT TIME STEP167, STRESS PERIOD   1
 UBDSV4 SAVING "   RIVER LEAKAGE" ON UNIT   9 AT TIME STEP167, STRESS PERIOD   1
 UBDSV3 SAVING "        RECHARGE" ON UNIT   9 AT TIME STEP167, STRESS PERIOD   1

 HEAD WILL BE SAVED ON UNIT 5037 AT END OF TIME STEP  167, STRESS PERIOD    1

 DRAWDOWN WILL BE SAVED ON UNIT   38 AT END OF TIME STEP  167, STRESS PERIOD    1
1
  VOLUMETRIC BUDGET FOR ENTIRE MODEL AT END OF TIME STEP  167, STRESS PERIOD   1
  ------------------------------------------------------------------------------

     CUMULATIVE VOLUMES      L**3       RATES FOR THIS TIME STEP      L**3/T
     ------------------                 ------------------------

           IN:                                      IN:
           ---                                      ---
             STORAGE =     7884312.0000               STORAGE =       28052.2441
       CONSTANT HEAD =           0.0000         CONSTANT HEAD =           0.0000
       RIVER LEAKAGE =      978921.9375         RIVER LEAKAGE =        5888.2622
            RECHARGE =     3130129.5000              RECHARGE =         152.3980

            TOTAL IN =    11993364.0000              TOTAL IN =       34092.9062

          OUT:                                     OUT:
          ----                                     ----
             STORAGE =     4971555.5000               STORAGE =        2463.7639
       CONSTANT HEAD =           0.0000         CONSTANT HEAD =           0.0000
       RIVER LEAKAGE =     7014462.5000         RIVER LEAKAGE =       31501.6191
            RECHARGE =           0.0000              RECHARGE =           0.0000

           TOTAL OUT =    11986018.0000             TOTAL OUT =       33965.3828

            IN - OUT =        7346.0000              IN - OUT =         127.5234

 PERCENT DISCREPANCY =           0.06     PERCENT DISCREPANCY =           0.37






         TIME SUMMARY AT END OF TIME STEP  167 IN STRESS PERIOD    1
                    SECONDS     MINUTES      HOURS       DAYS        YEARS
                    -----------------------------------------------------------
   TIME STEP LENGTH  86400.      1440.0      24.000      1.0000     2.73785E-03
 STRESS PERIOD TIME 1.44288E+07 2.40480E+05  4008.0      167.00     0.45722    
         TOTAL TIME 1.44288E+07 2.40480E+05  4008.0      167.00     0.45722    
1
 
 SOLVING FOR HEAD 
                                                   Max.-Head-Change                        Max.-Flux-Residual
  Residual-Control   Outer-Iter.   Inner-Iter.     Column Row Layer    Max.-Head-Change    Column Row Layer    Max.-Flux-Residual            L2-New               L2-Old           Solver-Max-Delh
          0                 1           2            24   16     1       0.3083808769E+00      29    3    1      -0.3164306436E+03      0.2056097671E+04      0.1032315756E+02      0.3083808769E+00
          0                 2           2            24   16     1      -0.2663311291E-01      29    3    1       0.3164029767E+02      0.2055692680E+03      0.2056097671E+04     -0.2663311291E-01

    ------------------------------------------------
       NWT REQUIRED            2 OUTER ITERATIONS 
       AND A TOTAL OF          4 INNER ITERATIONS.
    ------------------------------------------------

 OUTPUT CONTROL FOR STRESS PERIOD    1   TIME STEP  168
    SAVE HEAD FOR ALL LAYERS
    SAVE DRAWDOWN FOR ALL LAYERS
    SAVE BUDGET
    PRINT BUDGET
 UBDSV1 SAVING "         STORAGE" ON UNIT   9 AT TIME STEP168, STRESS PERIOD   1
 UBDSV2 SAVING "   CONSTANT HEAD" ON UNIT   9 AT TIME STEP168, STRESS PERIOD   1
 UBDSV1 SAVING "FLOW RIGHT FACE " ON UNIT   9 AT TIME STEP168, STRESS PERIOD   1
 UBDSV1 SAVING "FLOW FRONT FACE " ON UNIT   9 AT TIME STEP168, STRESS PERIOD   1
 UBDSV4 SAVING "   RIVER LEAKAGE" ON UNIT   9 AT TIME STEP168, STRESS PERIOD   1
 UBDSV3 SAVING "        RECHARGE" ON UNIT   9 AT TIME STEP168, STRESS PERIOD   1

 HEAD WILL BE SAVED ON UNIT 5037 AT END OF TIME STEP  168, STRESS PERIOD    1

 DRAWDOWN WILL BE SAVED ON UNIT   38 AT END OF TIME STEP  168, STRESS PERIOD    1
1
  VOLUMETRIC BUDGET FOR ENTIRE MODEL AT END OF TIME STEP  168, STRESS PERIOD   1
  ------------------------------------------------------------------------------

     CUMULATIVE VOLUMES      L**3       RATES FOR THIS TIME STEP      L**3/T
     ------------------                 ------------------------

           IN:                                      IN:
           ---                                      ---
             STORAGE =     7912282.0000               STORAGE =       27970.1543
       CONSTANT HEAD =           0.0000         CONSTANT HEAD =           0.0000
       RIVER LEAKAGE =      984816.6250         RIVER LEAKAGE =        5894.7041
            RECHARGE =     3130279.5000              RECHARGE =         149.9789

            TOTAL IN =    12027378.0000              TOTAL IN =       34014.8398

          OUT:                                     OUT:
          ----                                     ----
             STORAGE =     4973983.0000               STORAGE =        2427.7490
       CONSTANT HEAD =           0.0000         CONSTANT HEAD =           0.0000
       RIVER LEAKAGE =     7045922.5000         RIVER LEAKAGE =       31459.7969
            RECHARGE =           0.0000              RECHARGE =           0.0000

           TOTAL OUT =    12019906.0000             TOTAL OUT =       33887.5469

            IN - OUT =        7472.0000              IN - OUT =         127.2930

 PERCENT DISCREPANCY =           0.06     PERCENT DISCREPANCY =           0.37






         TIME SUMMARY AT END OF TIME STEP  168 IN STRESS PERIOD    1
                    SECONDS     MINUTES      HOURS       DAYS        YEARS
                    -----------------------------------------------------------
   TIME STEP LENGTH  86400.      1440.0      24.000      1.0000     2.73785E-03
 STRESS PERIOD TIME 1.45152E+07 2.41920E+05  4032.0      168.00     0.45996    
         TOTAL TIME 1.45152E+07 2.41920E+05  4032.0      168.00     0.45996    
1
 
 SOLVING FOR HEAD 
                                                   Max.-Head-Change                        Max.-Flux-Residual
  Residual-Control   Outer-Iter.   Inner-Iter.     Column Row Layer    Max.-Head-Change    Column Row Layer    Max.-Flux-Residual            L2-New               L2-Old           Solver-Max-Delh
          0                 1           2            24   16     1       0.2432530563E+00      29    3    1      -0.3162279847E+03      0.2047996648E+04      0.1027815624E+02      0.2432530563E+00
          0                 2           2            24   16     1      -0.2100845062E-01      29    3    1       0.3162003219E+02      0.2047595311E+03      0.2047996648E+04     -0.2100845062E-01

    ------------------------------------------------
       NWT REQUIRED            2 OUTER ITERATIONS 
       AND A TOTAL OF          4 INNER ITERATIONS.
    ------------------------------------------------

 OUTPUT CONTROL FOR STRESS PERIOD    1   TIME STEP  169
    SAVE HEAD FOR ALL LAYERS
    SAVE DRAWDOWN FOR ALL LAYERS
    SAVE BUDGET
    PRINT BUDGET
 UBDSV1 SAVING "         STORAGE" ON UNIT   9 AT TIME STEP169, STRESS PERIOD   1
 UBDSV2 SAVING "   CONSTANT HEAD" ON UNIT   9 AT TIME STEP169, STRESS PERIOD   1
 UBDSV1 SAVING "FLOW RIGHT FACE " ON UNIT   9 AT TIME STEP169, STRESS PERIOD   1
 UBDSV1 SAVING "FLOW FRONT FACE " ON UNIT   9 AT TIME STEP169, STRESS PERIOD   1
 UBDSV4 SAVING "   RIVER LEAKAGE" ON UNIT   9 AT TIME STEP169, STRESS PERIOD   1
 UBDSV3 SAVING "        RECHARGE" ON UNIT   9 AT TIME STEP169, STRESS PERIOD   1

 HEAD WILL BE SAVED ON UNIT 5037 AT END OF TIME STEP  169, STRESS PERIOD    1

 DRAWDOWN WILL BE SAVED ON UNIT   38 AT END OF TIME STEP  169, STRESS PERIOD    1
1
  VOLUMETRIC BUDGET FOR ENTIRE MODEL AT END OF TIME STEP  169, STRESS PERIOD   1
  ------------------------------------------------------------------------------

     CUMULATIVE VOLUMES      L**3       RATES FOR THIS TIME STEP      L**3/T
     ------------------                 ------------------------

           IN:                                      IN:
           ---                                      ---
             STORAGE =     7940171.0000               STORAGE =       27889.1953
       CONSTANT HEAD =           0.0000         CONSTANT HEAD =           0.0000
       RIVER LEAKAGE =      990717.6875         RIVER LEAKAGE =        5901.0898
            RECHARGE =     3130427.0000              RECHARGE =         147.6233

            TOTAL IN =    12061316.0000              TOTAL IN =       33937.9102

          OUT:                                     OUT:
          ----                                     ----
             STORAGE =     4976375.5000               STORAGE =        2392.6594
       CONSTANT HEAD =           0.0000         CONSTANT HEAD =           0.0000
       RIVER LEAKAGE =     7077340.5000         RIVER LEAKAGE =       31418.1875
            RECHARGE =           0.0000              RECHARGE =           0.0000

           TOTAL OUT =    12053716.0000             TOTAL OUT =       33810.8477

            IN - OUT =        7600.0000              IN - OUT =         127.0625

 PERCENT DISCREPANCY =           0.06     PERCENT DISCREPANCY =           0.38






         TIME SUMMARY AT END OF TIME STEP  169 IN STRESS PERIOD    1
                    SECONDS     MINUTES      HOURS       DAYS        YEARS
                    -----------------------------------------------------------
   TIME STEP LENGTH  86400.      1440.0      24.000      1.0000     2.73785E-03
 STRESS PERIOD TIME 1.46016E+07 2.43360E+05  4056.0      169.00     0.46270    
         TOTAL TIME 1.46016E+07 2.43360E+05  4056.0      169.00     0.46270    
1
 
 SOLVING FOR HEAD 
                                                   Max.-Head-Change                        Max.-Flux-Residual
  Residual-Control   Outer-Iter.   Inner-Iter.     Column Row Layer    Max.-Head-Change    Column Row Layer    Max.-Flux-Residual            L2-New               L2-Old           Solver-Max-Delh
          0                 1           2            24   16     1       0.1956031489E+00      29    3    1      -0.3160308374E+03      0.2040377579E+04      0.1023767214E+02      0.1956031489E+00
          0                 2           2            24   16     1      -0.1689322885E-01      28    4    1       0.1845534396E+03      0.2750870024E+03      0.2040377579E+04     -0.1689322885E-01

    ------------------------------------------------
       NWT REQUIRED            2 OUTER ITERATIONS 
       AND A TOTAL OF          4 INNER ITERATIONS.
    ------------------------------------------------

 OUTPUT CONTROL FOR STRESS PERIOD    1   TIME STEP  170
    SAVE HEAD FOR ALL LAYERS
    SAVE DRAWDOWN FOR ALL LAYERS
    SAVE BUDGET
    PRINT BUDGET
 UBDSV1 SAVING "         STORAGE" ON UNIT   9 AT TIME STEP170, STRESS PERIOD   1
 UBDSV2 SAVING "   CONSTANT HEAD" ON UNIT   9 AT TIME STEP170, STRESS PERIOD   1
 UBDSV1 SAVING "FLOW RIGHT FACE " ON UNIT   9 AT TIME STEP170, STRESS PERIOD   1
 UBDSV1 SAVING "FLOW FRONT FACE " ON UNIT   9 AT TIME STEP170, STRESS PERIOD   1
 UBDSV4 SAVING "   RIVER LEAKAGE" ON UNIT   9 AT TIME STEP170, STRESS PERIOD   1
 UBDSV3 SAVING "        RECHARGE" ON UNIT   9 AT TIME STEP170, STRESS PERIOD   1

 HEAD WILL BE SAVED ON UNIT 5037 AT END OF TIME STEP  170, STRESS PERIOD    1

 DRAWDOWN WILL BE SAVED ON UNIT   38 AT END OF TIME STEP  170, STRESS PERIOD    1
1
  VOLUMETRIC BUDGET FOR ENTIRE MODEL AT END OF TIME STEP  170, STRESS PERIOD   1
  ------------------------------------------------------------------------------

     CUMULATIVE VOLUMES      L**3       RATES FOR THIS TIME STEP      L**3/T
     ------------------                 ------------------------

           IN:                                      IN:
           ---                                      ---
             STORAGE =     7967989.5000               STORAGE =       27818.6328
       CONSTANT HEAD =           0.0000         CONSTANT HEAD =           0.0000
       RIVER LEAKAGE =      996625.1250         RIVER LEAKAGE =        5907.4380
            RECHARGE =     3130572.2500              RECHARGE =         145.3288

            TOTAL IN =    12095187.0000              TOTAL IN =       33871.3984

          OUT:                                     OUT:
          ----                                     ----
             STORAGE =     4978734.0000               STORAGE =        2358.5774
       CONSTANT HEAD =           0.0000         CONSTANT HEAD =           0.0000
       RIVER LEAKAGE =     7108717.5000         RIVER LEAKAGE =       31376.7930
            RECHARGE =           0.0000              RECHARGE =           0.0000

           TOTAL OUT =    12087452.0000             TOTAL OUT =       33735.3711

            IN - OUT =        7735.0000              IN - OUT =         136.0273

 PERCENT DISCREPANCY =           0.06     PERCENT DISCREPANCY =           0.40






         TIME SUMMARY AT END OF TIME STEP  170 IN STRESS PERIOD    1
                    SECONDS     MINUTES      HOURS       DAYS        YEARS
                    -----------------------------------------------------------
   TIME STEP LENGTH  86400.      1440.0      24.000      1.0000     2.73785E-03
 STRESS PERIOD TIME 1.46880E+07 2.44800E+05  4080.0      170.00     0.46543    
         TOTAL TIME 1.46880E+07 2.44800E+05  4080.0      170.00     0.46543    
1
 
 SOLVING FOR HEAD 
                                                   Max.-Head-Change                        Max.-Flux-Residual
  Residual-Control   Outer-Iter.   Inner-Iter.     Column Row Layer    Max.-Head-Change    Column Row Layer    Max.-Flux-Residual            L2-New               L2-Old           Solver-Max-Delh
          0                 1           2            24   16     1       0.1600417523E+00      29    3    1      -0.3158367230E+03      0.2032957399E+04      0.1375345405E+02      0.1600417523E+00
          0                 2           2            24   16     1      -0.1382200613E-01      29    3    1       0.3158090088E+02      0.2032563096E+03      0.2032957399E+04     -0.1382200613E-01

    ------------------------------------------------
       NWT REQUIRED            2 OUTER ITERATIONS 
       AND A TOTAL OF          4 INNER ITERATIONS.
    ------------------------------------------------

 OUTPUT CONTROL FOR STRESS PERIOD    1   TIME STEP  171
    SAVE HEAD FOR ALL LAYERS
    SAVE DRAWDOWN FOR ALL LAYERS
    SAVE BUDGET
    PRINT BUDGET
 UBDSV1 SAVING "         STORAGE" ON UNIT   9 AT TIME STEP171, STRESS PERIOD   1
 UBDSV2 SAVING "   CONSTANT HEAD" ON UNIT   9 AT TIME STEP171, STRESS PERIOD   1
 UBDSV1 SAVING "FLOW RIGHT FACE " ON UNIT   9 AT TIME STEP171, STRESS PERIOD   1
 UBDSV1 SAVING "FLOW FRONT FACE " ON UNIT   9 AT TIME STEP171, STRESS PERIOD   1
 UBDSV4 SAVING "   RIVER LEAKAGE" ON UNIT   9 AT TIME STEP171, STRESS PERIOD   1
 UBDSV3 SAVING "        RECHARGE" ON UNIT   9 AT TIME STEP171, STRESS PERIOD   1

 HEAD WILL BE SAVED ON UNIT 5037 AT END OF TIME STEP  171, STRESS PERIOD    1

 DRAWDOWN WILL BE SAVED ON UNIT   38 AT END OF TIME STEP  171, STRESS PERIOD    1
1
  VOLUMETRIC BUDGET FOR ENTIRE MODEL AT END OF TIME STEP  171, STRESS PERIOD   1
  ------------------------------------------------------------------------------

     CUMULATIVE VOLUMES      L**3       RATES FOR THIS TIME STEP      L**3/T
     ------------------                 ------------------------

           IN:                                      IN:
           ---                                      ---
             STORAGE =     7995720.5000               STORAGE =       27731.1777
       CONSTANT HEAD =           0.0000         CONSTANT HEAD =           0.0000
       RIVER LEAKAGE =     1002538.8750         RIVER LEAKAGE =        5913.7329
            RECHARGE =     3130715.2500              RECHARGE =         143.0931

            TOTAL IN =    12128974.0000              TOTAL IN =       33788.0039

          OUT:                                     OUT:
          ----                                     ----
             STORAGE =     4981060.0000               STORAGE =        2325.7915
       CONSTANT HEAD =           0.0000         CONSTANT HEAD =           0.0000
       RIVER LEAKAGE =     7140053.0000         RIVER LEAKAGE =       31335.6074
            RECHARGE =           0.0000              RECHARGE =           0.0000

           TOTAL OUT =    12121113.0000             TOTAL OUT =       33661.3984

            IN - OUT =        7861.0000              IN - OUT =         126.6055

 PERCENT DISCREPANCY =           0.06     PERCENT DISCREPANCY =           0.38






         TIME SUMMARY AT END OF TIME STEP  171 IN STRESS PERIOD    1
                    SECONDS     MINUTES      HOURS       DAYS        YEARS
                    -----------------------------------------------------------
   TIME STEP LENGTH  86400.      1440.0      24.000      1.0000     2.73785E-03
 STRESS PERIOD TIME 1.47744E+07 2.46240E+05  4104.0      171.00     0.46817    
         TOTAL TIME 1.47744E+07 2.46240E+05  4104.0      171.00     0.46817    
1
 
 SOLVING FOR HEAD 
                                                   Max.-Head-Change                        Max.-Flux-Residual
  Residual-Control   Outer-Iter.   Inner-Iter.     Column Row Layer    Max.-Head-Change    Column Row Layer    Max.-Flux-Residual            L2-New               L2-Old           Solver-Max-Delh
          0                 1           2            24   16     1       0.1329440529E+00      29    3    1      -0.3156259972E+03      0.2025648800E+04      0.1016251634E+02      0.1329440529E+00
          0                 2           2            24   16     1      -0.1148173452E-01      29    3    1       0.3155982536E+02      0.2025258228E+03      0.2025648800E+04     -0.1148173452E-01

    ------------------------------------------------
       NWT REQUIRED            2 OUTER ITERATIONS 
       AND A TOTAL OF          4 INNER ITERATIONS.
    ------------------------------------------------

 OUTPUT CONTROL FOR STRESS PERIOD    1   TIME STEP  172
    SAVE HEAD FOR ALL LAYERS
    SAVE DRAWDOWN FOR ALL LAYERS
    SAVE BUDGET
    PRINT BUDGET
 UBDSV1 SAVING "         STORAGE" ON UNIT   9 AT TIME STEP172, STRESS PERIOD   1
 UBDSV2 SAVING "   CONSTANT HEAD" ON UNIT   9 AT TIME STEP172, STRESS PERIOD   1
 UBDSV1 SAVING "FLOW RIGHT FACE " ON UNIT   9 AT TIME STEP172, STRESS PERIOD   1
 UBDSV1 SAVING "FLOW FRONT FACE " ON UNIT   9 AT TIME STEP172, STRESS PERIOD   1
 UBDSV4 SAVING "   RIVER LEAKAGE" ON UNIT   9 AT TIME STEP172, STRESS PERIOD   1
 UBDSV3 SAVING "        RECHARGE" ON UNIT   9 AT TIME STEP172, STRESS PERIOD   1

 HEAD WILL BE SAVED ON UNIT 5037 AT END OF TIME STEP  172, STRESS PERIOD    1

 DRAWDOWN WILL BE SAVED ON UNIT   38 AT END OF TIME STEP  172, STRESS PERIOD    1
1
  VOLUMETRIC BUDGET FOR ENTIRE MODEL AT END OF TIME STEP  172, STRESS PERIOD   1
  ------------------------------------------------------------------------------

     CUMULATIVE VOLUMES      L**3       RATES FOR THIS TIME STEP      L**3/T
     ------------------                 ------------------------

           IN:                                      IN:
           ---                                      ---
             STORAGE =     8023375.0000               STORAGE =       27654.3574
       CONSTANT HEAD =           0.0000         CONSTANT HEAD =           0.0000
       RIVER LEAKAGE =     1008458.8750         RIVER LEAKAGE =        5920.0020
            RECHARGE =     3130856.2500              RECHARGE =         140.9141

            TOTAL IN =    12162690.0000              TOTAL IN =       33715.2734

          OUT:                                     OUT:
          ----                                     ----
             STORAGE =     4983354.5000               STORAGE =        2294.2632
       CONSTANT HEAD =           0.0000         CONSTANT HEAD =           0.0000
       RIVER LEAKAGE =     7171347.5000         RIVER LEAKAGE =       31294.6309
            RECHARGE =           0.0000              RECHARGE =           0.0000

           TOTAL OUT =    12154702.0000             TOTAL OUT =       33588.8945

            IN - OUT =        7988.0000              IN - OUT =         126.3789

 PERCENT DISCREPANCY =           0.07     PERCENT DISCREPANCY =           0.38






         TIME SUMMARY AT END OF TIME STEP  172 IN STRESS PERIOD    1
                    SECONDS     MINUTES      HOURS       DAYS        YEARS
                    -----------------------------------------------------------
   TIME STEP LENGTH  86400.      1440.0      24.000      1.0000     2.73785E-03
 STRESS PERIOD TIME 1.48608E+07 2.47680E+05  4128.0      172.00     0.47091    
         TOTAL TIME 1.48608E+07 2.47680E+05  4128.0      172.00     0.47091    
1
 
 SOLVING FOR HEAD 
                                                   Max.-Head-Change                        Max.-Flux-Residual
  Residual-Control   Outer-Iter.   Inner-Iter.     Column Row Layer    Max.-Head-Change    Column Row Layer    Max.-Flux-Residual            L2-New               L2-Old           Solver-Max-Delh
          0                 1           2            24   16     1       0.1119441142E+00      29    3    1      -0.3154140891E+03      0.2018483349E+04      0.1012599480E+02      0.1119441142E+00
          0                 2           2            24   16     1      -0.9668085709E-02      29    3    1       0.3153863186E+02      0.2018096464E+03      0.2018483349E+04     -0.9668085709E-02

    ------------------------------------------------
       NWT REQUIRED            2 OUTER ITERATIONS 
       AND A TOTAL OF          4 INNER ITERATIONS.
    ------------------------------------------------

 OUTPUT CONTROL FOR STRESS PERIOD    1   TIME STEP  173
    SAVE HEAD FOR ALL LAYERS
    SAVE DRAWDOWN FOR ALL LAYERS
    SAVE BUDGET
    PRINT BUDGET
 UBDSV1 SAVING "         STORAGE" ON UNIT   9 AT TIME STEP173, STRESS PERIOD   1
 UBDSV2 SAVING "   CONSTANT HEAD" ON UNIT   9 AT TIME STEP173, STRESS PERIOD   1
 UBDSV1 SAVING "FLOW RIGHT FACE " ON UNIT   9 AT TIME STEP173, STRESS PERIOD   1
 UBDSV1 SAVING "FLOW FRONT FACE " ON UNIT   9 AT TIME STEP173, STRESS PERIOD   1
 UBDSV4 SAVING "   RIVER LEAKAGE" ON UNIT   9 AT TIME STEP173, STRESS PERIOD   1
 UBDSV3 SAVING "        RECHARGE" ON UNIT   9 AT TIME STEP173, STRESS PERIOD   1

 HEAD WILL BE SAVED ON UNIT 5037 AT END OF TIME STEP  173, STRESS PERIOD    1

 DRAWDOWN WILL BE SAVED ON UNIT   38 AT END OF TIME STEP  173, STRESS PERIOD    1
1
  VOLUMETRIC BUDGET FOR ENTIRE MODEL AT END OF TIME STEP  173, STRESS PERIOD   1
  ------------------------------------------------------------------------------

     CUMULATIVE VOLUMES      L**3       RATES FOR THIS TIME STEP      L**3/T
     ------------------                 ------------------------

           IN:                                      IN:
           ---                                      ---
             STORAGE =     8050954.0000               STORAGE =       27578.7949
       CONSTANT HEAD =           0.0000         CONSTANT HEAD =           0.0000
       RIVER LEAKAGE =     1014385.1250         RIVER LEAKAGE =        5926.2534
            RECHARGE =     3130995.0000              RECHARGE =         138.7898

            TOTAL IN =    12196334.0000              TOTAL IN =       33643.8359

          OUT:                                     OUT:
          ----                                     ----
             STORAGE =     4985618.5000               STORAGE =        2263.8376
       CONSTANT HEAD =           0.0000         CONSTANT HEAD =           0.0000
       RIVER LEAKAGE =     7202601.5000         RIVER LEAKAGE =       31253.8457
            RECHARGE =           0.0000              RECHARGE =           0.0000

           TOTAL OUT =    12188220.0000             TOTAL OUT =       33517.6836

            IN - OUT =        8114.0000              IN - OUT =         126.1523

 PERCENT DISCREPANCY =           0.07     PERCENT DISCREPANCY =           0.38






         TIME SUMMARY AT END OF TIME STEP  173 IN STRESS PERIOD    1
                    SECONDS     MINUTES      HOURS       DAYS        YEARS
                    -----------------------------------------------------------
   TIME STEP LENGTH  86400.      1440.0      24.000      1.0000     2.73785E-03
 STRESS PERIOD TIME 1.49472E+07 2.49120E+05  4152.0      173.00     0.47365    
         TOTAL TIME 1.49472E+07 2.49120E+05  4152.0      173.00     0.47365    
1
 
 SOLVING FOR HEAD 
                                                   Max.-Head-Change                        Max.-Flux-Residual
  Residual-Control   Outer-Iter.   Inner-Iter.     Column Row Layer    Max.-Head-Change    Column Row Layer    Max.-Flux-Residual            L2-New               L2-Old           Solver-Max-Delh
          0                 1           2            24   16     1       0.9532120336E-01      29    3    1      -0.3152012858E+03      0.2011426831E+04      0.1009018875E+02      0.9532120336E-01
          0                 2           2            38   20     1       0.5812691551E-01      29    3    1       0.3151734907E+02      0.2019849815E+03      0.2011426831E+04      0.5812691551E-01

    ------------------------------------------------
       NWT REQUIRED            2 OUTER ITERATIONS 
       AND A TOTAL OF          4 INNER ITERATIONS.
    ------------------------------------------------

 OUTPUT CONTROL FOR STRESS PERIOD    1   TIME STEP  174
    SAVE HEAD FOR ALL LAYERS
    SAVE DRAWDOWN FOR ALL LAYERS
    SAVE BUDGET
    PRINT BUDGET
 UBDSV1 SAVING "         STORAGE" ON UNIT   9 AT TIME STEP174, STRESS PERIOD   1
 UBDSV2 SAVING "   CONSTANT HEAD" ON UNIT   9 AT TIME STEP174, STRESS PERIOD   1
 UBDSV1 SAVING "FLOW RIGHT FACE " ON UNIT   9 AT TIME STEP174, STRESS PERIOD   1
 UBDSV1 SAVING "FLOW FRONT FACE " ON UNIT   9 AT TIME STEP174, STRESS PERIOD   1
 UBDSV4 SAVING "   RIVER LEAKAGE" ON UNIT   9 AT TIME STEP174, STRESS PERIOD   1
 UBDSV3 SAVING "        RECHARGE" ON UNIT   9 AT TIME STEP174, STRESS PERIOD   1

 HEAD WILL BE SAVED ON UNIT 5037 AT END OF TIME STEP  174, STRESS PERIOD    1

 DRAWDOWN WILL BE SAVED ON UNIT   38 AT END OF TIME STEP  174, STRESS PERIOD    1
1
  VOLUMETRIC BUDGET FOR ENTIRE MODEL AT END OF TIME STEP  174, STRESS PERIOD   1
  ------------------------------------------------------------------------------

     CUMULATIVE VOLUMES      L**3       RATES FOR THIS TIME STEP      L**3/T
     ------------------                 ------------------------

           IN:                                      IN:
           ---                                      ---
             STORAGE =     8078457.0000               STORAGE =       27502.8613
       CONSTANT HEAD =           0.0000         CONSTANT HEAD =           0.0000
       RIVER LEAKAGE =     1020317.5625         RIVER LEAKAGE =        5932.4595
            RECHARGE =     3131131.7500              RECHARGE =         136.7180

            TOTAL IN =    12229907.0000              TOTAL IN =       33572.0391

          OUT:                                     OUT:
          ----                                     ----
             STORAGE =     4987852.0000               STORAGE =        2233.6143
       CONSTANT HEAD =           0.0000         CONSTANT HEAD =           0.0000
       RIVER LEAKAGE =     7233815.0000         RIVER LEAKAGE =       31213.2832
            RECHARGE =           0.0000              RECHARGE =           0.0000

           TOTAL OUT =    12221667.0000             TOTAL OUT =       33446.8984

            IN - OUT =        8240.0000              IN - OUT =         125.1406

 PERCENT DISCREPANCY =           0.07     PERCENT DISCREPANCY =           0.37






         TIME SUMMARY AT END OF TIME STEP  174 IN STRESS PERIOD    1
                    SECONDS     MINUTES      HOURS       DAYS        YEARS
                    -----------------------------------------------------------
   TIME STEP LENGTH  86400.      1440.0      24.000      1.0000     2.73785E-03
 STRESS PERIOD TIME 1.50336E+07 2.50560E+05  4176.0      174.00     0.47639    
         TOTAL TIME 1.50336E+07 2.50560E+05  4176.0      174.00     0.47639    
1
 
 SOLVING FOR HEAD 
                                                   Max.-Head-Change                        Max.-Flux-Residual
  Residual-Control   Outer-Iter.   Inner-Iter.     Column Row Layer    Max.-Head-Change    Column Row Layer    Max.-Flux-Residual            L2-New               L2-Old           Solver-Max-Delh
          0                 1           2            38   20     1       0.3030486193E+00      29    3    1      -0.3149741481E+03      0.2004154170E+04      0.1027982833E+02      0.3030486193E+00
          0                 2           2            38   20     1      -0.2617875458E-01      29    3    1       0.3149463336E+02      0.2003772884E+03      0.2004154170E+04     -0.2617875458E-01

    ------------------------------------------------
       NWT REQUIRED            2 OUTER ITERATIONS 
       AND A TOTAL OF          4 INNER ITERATIONS.
    ------------------------------------------------

 OUTPUT CONTROL FOR STRESS PERIOD    1   TIME STEP  175
    SAVE HEAD FOR ALL LAYERS
    SAVE DRAWDOWN FOR ALL LAYERS
    SAVE BUDGET
    PRINT BUDGET
 UBDSV1 SAVING "         STORAGE" ON UNIT   9 AT TIME STEP175, STRESS PERIOD   1
 UBDSV2 SAVING "   CONSTANT HEAD" ON UNIT   9 AT TIME STEP175, STRESS PERIOD   1
 UBDSV1 SAVING "FLOW RIGHT FACE " ON UNIT   9 AT TIME STEP175, STRESS PERIOD   1
 UBDSV1 SAVING "FLOW FRONT FACE " ON UNIT   9 AT TIME STEP175, STRESS PERIOD   1
 UBDSV4 SAVING "   RIVER LEAKAGE" ON UNIT   9 AT TIME STEP175, STRESS PERIOD   1
 UBDSV3 SAVING "        RECHARGE" ON UNIT   9 AT TIME STEP175, STRESS PERIOD   1

 HEAD WILL BE SAVED ON UNIT 5037 AT END OF TIME STEP  175, STRESS PERIOD    1

 DRAWDOWN WILL BE SAVED ON UNIT   38 AT END OF TIME STEP  175, STRESS PERIOD    1
1
  VOLUMETRIC BUDGET FOR ENTIRE MODEL AT END OF TIME STEP  175, STRESS PERIOD   1
  ------------------------------------------------------------------------------

     CUMULATIVE VOLUMES      L**3       RATES FOR THIS TIME STEP      L**3/T
     ------------------                 ------------------------

           IN:                                      IN:
           ---                                      ---
             STORAGE =     8105878.0000               STORAGE =       27421.0078
       CONSTANT HEAD =           0.0000         CONSTANT HEAD =           0.0000
       RIVER LEAKAGE =     1026256.2500         RIVER LEAKAGE =        5938.6621
            RECHARGE =     3131266.5000              RECHARGE =         134.6971

            TOTAL IN =    12263400.0000              TOTAL IN =       33494.3672

          OUT:                                     OUT:
          ----                                     ----
             STORAGE =     4990048.0000               STORAGE =        2195.7566
       CONSTANT HEAD =           0.0000         CONSTANT HEAD =           0.0000
       RIVER LEAKAGE =     7264988.0000         RIVER LEAKAGE =       31172.9043
            RECHARGE =           0.0000              RECHARGE =           0.0000

           TOTAL OUT =    12255036.0000             TOTAL OUT =       33368.6602

            IN - OUT =        8364.0000              IN - OUT =         125.7070

 PERCENT DISCREPANCY =           0.07     PERCENT DISCREPANCY =           0.38






         TIME SUMMARY AT END OF TIME STEP  175 IN STRESS PERIOD    1
                    SECONDS     MINUTES      HOURS       DAYS        YEARS
                    -----------------------------------------------------------
   TIME STEP LENGTH  86400.      1440.0      24.000      1.0000     2.73785E-03
 STRESS PERIOD TIME 1.51200E+07 2.52000E+05  4200.0      175.00     0.47912    
         TOTAL TIME 1.51200E+07 2.52000E+05  4200.0      175.00     0.47912    
1
 
 SOLVING FOR HEAD 
                                                   Max.-Head-Change                        Max.-Flux-Residual
  Residual-Control   Outer-Iter.   Inner-Iter.     Column Row Layer    Max.-Head-Change    Column Row Layer    Max.-Flux-Residual            L2-New               L2-Old           Solver-Max-Delh
          0                 1           2            38   20     1       0.2190213370E+00      29    3    1      -0.3147469413E+03      0.1996272757E+04      0.1001857506E+02      0.2190213370E+00
          0                 2           2            38   20     1      -0.1892044225E-01      29    3    1       0.3147191046E+02      0.1995894738E+03      0.1996272757E+04     -0.1892044225E-01

    ------------------------------------------------
       NWT REQUIRED            2 OUTER ITERATIONS 
       AND A TOTAL OF          4 INNER ITERATIONS.
    ------------------------------------------------

 OUTPUT CONTROL FOR STRESS PERIOD    1   TIME STEP  176
    SAVE HEAD FOR ALL LAYERS
    SAVE DRAWDOWN FOR ALL LAYERS
    SAVE BUDGET
    PRINT BUDGET
 UBDSV1 SAVING "         STORAGE" ON UNIT   9 AT TIME STEP176, STRESS PERIOD   1
 UBDSV2 SAVING "   CONSTANT HEAD" ON UNIT   9 AT TIME STEP176, STRESS PERIOD   1
 UBDSV1 SAVING "FLOW RIGHT FACE " ON UNIT   9 AT TIME STEP176, STRESS PERIOD   1
 UBDSV1 SAVING "FLOW FRONT FACE " ON UNIT   9 AT TIME STEP176, STRESS PERIOD   1
 UBDSV4 SAVING "   RIVER LEAKAGE" ON UNIT   9 AT TIME STEP176, STRESS PERIOD   1
 UBDSV3 SAVING "        RECHARGE" ON UNIT   9 AT TIME STEP176, STRESS PERIOD   1

 HEAD WILL BE SAVED ON UNIT 5037 AT END OF TIME STEP  176, STRESS PERIOD    1

 DRAWDOWN WILL BE SAVED ON UNIT   38 AT END OF TIME STEP  176, STRESS PERIOD    1
1
  VOLUMETRIC BUDGET FOR ENTIRE MODEL AT END OF TIME STEP  176, STRESS PERIOD   1
  ------------------------------------------------------------------------------

     CUMULATIVE VOLUMES      L**3       RATES FOR THIS TIME STEP      L**3/T
     ------------------                 ------------------------

           IN:                                      IN:
           ---                                      ---
             STORAGE =     8133221.0000               STORAGE =       27342.8340
       CONSTANT HEAD =           0.0000         CONSTANT HEAD =           0.0000
       RIVER LEAKAGE =     1032201.0625         RIVER LEAKAGE =        5944.8369
            RECHARGE =     3131399.2500              RECHARGE =         132.7252

            TOTAL IN =    12296821.0000              TOTAL IN =       33420.3984

          OUT:                                     OUT:
          ----                                     ----
             STORAGE =     4992210.0000               STORAGE =        2162.1882
       CONSTANT HEAD =           0.0000         CONSTANT HEAD =           0.0000
       RIVER LEAKAGE =     7296120.5000         RIVER LEAKAGE =       31132.7246
            RECHARGE =           0.0000              RECHARGE =           0.0000

           TOTAL OUT =    12288330.0000             TOTAL OUT =       33294.9141

            IN - OUT =        8491.0000              IN - OUT =         125.4844

 PERCENT DISCREPANCY =           0.07     PERCENT DISCREPANCY =           0.38






         TIME SUMMARY AT END OF TIME STEP  176 IN STRESS PERIOD    1
                    SECONDS     MINUTES      HOURS       DAYS        YEARS
                    -----------------------------------------------------------
   TIME STEP LENGTH  86400.      1440.0      24.000      1.0000     2.73785E-03
 STRESS PERIOD TIME 1.52064E+07 2.53440E+05  4224.0      176.00     0.48186    
         TOTAL TIME 1.52064E+07 2.53440E+05  4224.0      176.00     0.48186    
1
 
 SOLVING FOR HEAD 
                                                   Max.-Head-Change                        Max.-Flux-Residual
  Residual-Control   Outer-Iter.   Inner-Iter.     Column Row Layer    Max.-Head-Change    Column Row Layer    Max.-Flux-Residual            L2-New               L2-Old           Solver-Max-Delh
          0                 1           2            38   20     1       0.1599248670E+00      29    3    1      -0.3145185877E+03      0.1989172451E+04      0.9979186779E+01      0.1599248670E+00
          0                 2           2             4    7     1       0.1710533777E-01      29    3    1       0.3144907353E+02      0.1989446480E+03      0.1989172451E+04      0.1710533777E-01

    ------------------------------------------------
       NWT REQUIRED            2 OUTER ITERATIONS 
       AND A TOTAL OF          4 INNER ITERATIONS.
    ------------------------------------------------

 OUTPUT CONTROL FOR STRESS PERIOD    1   TIME STEP  177
    SAVE HEAD FOR ALL LAYERS
    SAVE DRAWDOWN FOR ALL LAYERS
    SAVE BUDGET
    PRINT BUDGET
 UBDSV1 SAVING "         STORAGE" ON UNIT   9 AT TIME STEP177, STRESS PERIOD   1
 UBDSV2 SAVING "   CONSTANT HEAD" ON UNIT   9 AT TIME STEP177, STRESS PERIOD   1
 UBDSV1 SAVING "FLOW RIGHT FACE " ON UNIT   9 AT TIME STEP177, STRESS PERIOD   1
 UBDSV1 SAVING "FLOW FRONT FACE " ON UNIT   9 AT TIME STEP177, STRESS PERIOD   1
 UBDSV4 SAVING "   RIVER LEAKAGE" ON UNIT   9 AT TIME STEP177, STRESS PERIOD   1
 UBDSV3 SAVING "        RECHARGE" ON UNIT   9 AT TIME STEP177, STRESS PERIOD   1

 HEAD WILL BE SAVED ON UNIT 5037 AT END OF TIME STEP  177, STRESS PERIOD    1

 DRAWDOWN WILL BE SAVED ON UNIT   38 AT END OF TIME STEP  177, STRESS PERIOD    1
1
  VOLUMETRIC BUDGET FOR ENTIRE MODEL AT END OF TIME STEP  177, STRESS PERIOD   1
  ------------------------------------------------------------------------------

     CUMULATIVE VOLUMES      L**3       RATES FOR THIS TIME STEP      L**3/T
     ------------------                 ------------------------

           IN:                                      IN:
           ---                                      ---
             STORAGE =     8160488.0000               STORAGE =       27266.7832
       CONSTANT HEAD =           0.0000         CONSTANT HEAD =           0.0000
       RIVER LEAKAGE =     1038152.0625         RIVER LEAKAGE =        5950.9844
            RECHARGE =     3131530.0000              RECHARGE =         130.8006

            TOTAL IN =    12330170.0000              TOTAL IN =       33348.5664

          OUT:                                     OUT:
          ----                                     ----
             STORAGE =     4994341.0000               STORAGE =        2130.7754
       CONSTANT HEAD =           0.0000         CONSTANT HEAD =           0.0000
       RIVER LEAKAGE =     7327213.5000         RIVER LEAKAGE =       31092.7559
            RECHARGE =           0.0000              RECHARGE =           0.0000

           TOTAL OUT =    12321554.0000             TOTAL OUT =       33223.5312

            IN - OUT =        8616.0000              IN - OUT =         125.0352

 PERCENT DISCREPANCY =           0.07     PERCENT DISCREPANCY =           0.38






         TIME SUMMARY AT END OF TIME STEP  177 IN STRESS PERIOD    1
                    SECONDS     MINUTES      HOURS       DAYS        YEARS
                    -----------------------------------------------------------
   TIME STEP LENGTH  86400.      1440.0      24.000      1.0000     2.73785E-03
 STRESS PERIOD TIME 1.52928E+07 2.54880E+05  4248.0      177.00     0.48460    
         TOTAL TIME 1.52928E+07 2.54880E+05  4248.0      177.00     0.48460    
1
 
 SOLVING FOR HEAD 
                                                   Max.-Head-Change                        Max.-Flux-Residual
  Residual-Control   Outer-Iter.   Inner-Iter.     Column Row Layer    Max.-Head-Change    Column Row Layer    Max.-Flux-Residual            L2-New               L2-Old           Solver-Max-Delh
          0                 1           2            38   20     1       0.1181130861E+00      29    3    1      -0.3142768690E+03      0.1982412035E+04      0.9959577715E+01      0.1181130861E+00
          0                 2           2             5   11     1       0.1113243417E+00      29    3    1       0.3142490064E+02      0.1996384255E+03      0.1982412035E+04      0.1113243417E+00
          0                 3           2             5   11     1      -0.9614302177E-02       5   11    1      -0.2426088671E+01      0.1019723287E+02      0.1996384255E+03     -0.9614302177E-02

    ------------------------------------------------
       NWT REQUIRED            3 OUTER ITERATIONS 
       AND A TOTAL OF          6 INNER ITERATIONS.
    ------------------------------------------------

 OUTPUT CONTROL FOR STRESS PERIOD    1   TIME STEP  178
    SAVE HEAD FOR ALL LAYERS
    SAVE DRAWDOWN FOR ALL LAYERS
    SAVE BUDGET
    PRINT BUDGET
 UBDSV1 SAVING "         STORAGE" ON UNIT   9 AT TIME STEP178, STRESS PERIOD   1
 UBDSV2 SAVING "   CONSTANT HEAD" ON UNIT   9 AT TIME STEP178, STRESS PERIOD   1
 UBDSV1 SAVING "FLOW RIGHT FACE " ON UNIT   9 AT TIME STEP178, STRESS PERIOD   1
 UBDSV1 SAVING "FLOW FRONT FACE " ON UNIT   9 AT TIME STEP178, STRESS PERIOD   1
 UBDSV4 SAVING "   RIVER LEAKAGE" ON UNIT   9 AT TIME STEP178, STRESS PERIOD   1
 UBDSV3 SAVING "        RECHARGE" ON UNIT   9 AT TIME STEP178, STRESS PERIOD   1

 HEAD WILL BE SAVED ON UNIT 5037 AT END OF TIME STEP  178, STRESS PERIOD    1

 DRAWDOWN WILL BE SAVED ON UNIT   38 AT END OF TIME STEP  178, STRESS PERIOD    1
1
  VOLUMETRIC BUDGET FOR ENTIRE MODEL AT END OF TIME STEP  178, STRESS PERIOD   1
  ------------------------------------------------------------------------------

     CUMULATIVE VOLUMES      L**3       RATES FOR THIS TIME STEP      L**3/T
     ------------------                 ------------------------

           IN:                                      IN:
           ---                                      ---
             STORAGE =     8187551.5000               STORAGE =       27063.3066
       CONSTANT HEAD =           0.0000         CONSTANT HEAD =           0.0000
       RIVER LEAKAGE =     1044109.1250         RIVER LEAKAGE =        5957.0747
            RECHARGE =     3131659.0000              RECHARGE =         128.9216

            TOTAL IN =    12363320.0000              TOTAL IN =       33149.3047

          OUT:                                     OUT:
          ----                                     ----
             STORAGE =     4996431.0000               STORAGE =        2089.9646
       CONSTANT HEAD =           0.0000         CONSTANT HEAD =           0.0000
       RIVER LEAKAGE =     7358266.5000         RIVER LEAKAGE =       31053.1758
            RECHARGE =           0.0000              RECHARGE =           0.0000

           TOTAL OUT =    12354698.0000             TOTAL OUT =       33143.1406

            IN - OUT =        8622.0000              IN - OUT =           6.1641

 PERCENT DISCREPANCY =           0.07     PERCENT DISCREPANCY =           0.02






         TIME SUMMARY AT END OF TIME STEP  178 IN STRESS PERIOD    1
                    SECONDS     MINUTES      HOURS       DAYS        YEARS
                    -----------------------------------------------------------
   TIME STEP LENGTH  86400.      1440.0      24.000      1.0000     2.73785E-03
 STRESS PERIOD TIME 1.53792E+07 2.56320E+05  4272.0      178.00     0.48734    
         TOTAL TIME 1.53792E+07 2.56320E+05  4272.0      178.00     0.48734    
1
 
 SOLVING FOR HEAD 
                                                   Max.-Head-Change                        Max.-Flux-Residual
  Residual-Control   Outer-Iter.   Inner-Iter.     Column Row Layer    Max.-Head-Change    Column Row Layer    Max.-Flux-Residual            L2-New               L2-Old           Solver-Max-Delh
          0                 1           2             5   11     1       0.1763630549E+00      29    3    1      -0.3140359989E+03      0.1975773079E+04      0.1019723287E+02      0.1763630549E+00
          0                 2           2            38   21     1       0.1126013067E+00      20   19    1       0.4764444564E+02      0.2080132153E+03      0.1975773079E+04      0.1126013067E+00
          0                 3           2            38   21     1      -0.9724681858E-02      20   19    1      -0.4769934034E+01      0.1195845111E+02      0.2080132153E+03     -0.9724681858E-02

    ------------------------------------------------
       NWT REQUIRED            3 OUTER ITERATIONS 
       AND A TOTAL OF          6 INNER ITERATIONS.
    ------------------------------------------------

 OUTPUT CONTROL FOR STRESS PERIOD    1   TIME STEP  179
    SAVE HEAD FOR ALL LAYERS
    SAVE DRAWDOWN FOR ALL LAYERS
    SAVE BUDGET
    PRINT BUDGET
 UBDSV1 SAVING "         STORAGE" ON UNIT   9 AT TIME STEP179, STRESS PERIOD   1
 UBDSV2 SAVING "   CONSTANT HEAD" ON UNIT   9 AT TIME STEP179, STRESS PERIOD   1
 UBDSV1 SAVING "FLOW RIGHT FACE " ON UNIT   9 AT TIME STEP179, STRESS PERIOD   1
 UBDSV1 SAVING "FLOW FRONT FACE " ON UNIT   9 AT TIME STEP179, STRESS PERIOD   1
 UBDSV4 SAVING "   RIVER LEAKAGE" ON UNIT   9 AT TIME STEP179, STRESS PERIOD   1
 UBDSV3 SAVING "        RECHARGE" ON UNIT   9 AT TIME STEP179, STRESS PERIOD   1

 HEAD WILL BE SAVED ON UNIT 5037 AT END OF TIME STEP  179, STRESS PERIOD    1

 DRAWDOWN WILL BE SAVED ON UNIT   38 AT END OF TIME STEP  179, STRESS PERIOD    1
1
  VOLUMETRIC BUDGET FOR ENTIRE MODEL AT END OF TIME STEP  179, STRESS PERIOD   1
  ------------------------------------------------------------------------------

     CUMULATIVE VOLUMES      L**3       RATES FOR THIS TIME STEP      L**3/T
     ------------------                 ------------------------

           IN:                                      IN:
           ---                                      ---
             STORAGE =     8214535.5000               STORAGE =       26984.1328
       CONSTANT HEAD =           0.0000         CONSTANT HEAD =           0.0000
       RIVER LEAKAGE =     1050072.2500         RIVER LEAKAGE =        5963.1685
            RECHARGE =     3131786.0000              RECHARGE =         127.0869

            TOTAL IN =    12396394.0000              TOTAL IN =       33074.3867

          OUT:                                     OUT:
          ----                                     ----
             STORAGE =     4998486.0000               STORAGE =        2054.8340
       CONSTANT HEAD =           0.0000         CONSTANT HEAD =           0.0000
       RIVER LEAKAGE =     7389280.0000         RIVER LEAKAGE =       31013.5957
            RECHARGE =           0.0000              RECHARGE =           0.0000

           TOTAL OUT =    12387766.0000             TOTAL OUT =       33068.4297

            IN - OUT =        8628.0000              IN - OUT =           5.9570

 PERCENT DISCREPANCY =           0.07     PERCENT DISCREPANCY =           0.02






         TIME SUMMARY AT END OF TIME STEP  179 IN STRESS PERIOD    1
                    SECONDS     MINUTES      HOURS       DAYS        YEARS
                    -----------------------------------------------------------
   TIME STEP LENGTH  86400.      1440.0      24.000      1.0000     2.73785E-03
 STRESS PERIOD TIME 1.54656E+07 2.57760E+05  4296.0      179.00     0.49008    
         TOTAL TIME 1.54656E+07 2.57760E+05  4296.0      179.00     0.49008    
1
 
 SOLVING FOR HEAD 
                                                   Max.-Head-Change                        Max.-Flux-Residual
  Residual-Control   Outer-Iter.   Inner-Iter.     Column Row Layer    Max.-Head-Change    Column Row Layer    Max.-Flux-Residual            L2-New               L2-Old           Solver-Max-Delh
          0                 1           2            38   21     1       0.3267883130E+00      29    3    1      -0.3137813059E+03      0.1967830791E+04      0.1195845111E+02      0.3267883130E+00
          0                 2           2            38   21     1      -0.2822726162E-01      29    3    1       0.3137534258E+02      0.1967466031E+03      0.1967830791E+04     -0.2822726162E-01

    ------------------------------------------------
       NWT REQUIRED            2 OUTER ITERATIONS 
       AND A TOTAL OF          4 INNER ITERATIONS.
    ------------------------------------------------

 OUTPUT CONTROL FOR STRESS PERIOD    1   TIME STEP  180
    SAVE HEAD FOR ALL LAYERS
    SAVE DRAWDOWN FOR ALL LAYERS
    SAVE BUDGET
    PRINT BUDGET
 UBDSV1 SAVING "         STORAGE" ON UNIT   9 AT TIME STEP180, STRESS PERIOD   1
 UBDSV2 SAVING "   CONSTANT HEAD" ON UNIT   9 AT TIME STEP180, STRESS PERIOD   1
 UBDSV1 SAVING "FLOW RIGHT FACE " ON UNIT   9 AT TIME STEP180, STRESS PERIOD   1
 UBDSV1 SAVING "FLOW FRONT FACE " ON UNIT   9 AT TIME STEP180, STRESS PERIOD   1
 UBDSV4 SAVING "   RIVER LEAKAGE" ON UNIT   9 AT TIME STEP180, STRESS PERIOD   1
 UBDSV3 SAVING "        RECHARGE" ON UNIT   9 AT TIME STEP180, STRESS PERIOD   1

 HEAD WILL BE SAVED ON UNIT 5037 AT END OF TIME STEP  180, STRESS PERIOD    1

 DRAWDOWN WILL BE SAVED ON UNIT   38 AT END OF TIME STEP  180, STRESS PERIOD    1
1
  VOLUMETRIC BUDGET FOR ENTIRE MODEL AT END OF TIME STEP  180, STRESS PERIOD   1
  ------------------------------------------------------------------------------

     CUMULATIVE VOLUMES      L**3       RATES FOR THIS TIME STEP      L**3/T
     ------------------                 ------------------------

           IN:                                      IN:
           ---                                      ---
             STORAGE =     8241565.5000               STORAGE =       27030.1484
       CONSTANT HEAD =           0.0000         CONSTANT HEAD =           0.0000
       RIVER LEAKAGE =     1056041.5000         RIVER LEAKAGE =        5969.2812
            RECHARGE =     3131911.2500              RECHARGE =         125.2948

            TOTAL IN =    12429518.0000              TOTAL IN =       33124.7227

          OUT:                                     OUT:
          ----                                     ----
             STORAGE =     5000512.0000               STORAGE =        2026.0842
       CONSTANT HEAD =           0.0000         CONSTANT HEAD =           0.0000
       RIVER LEAKAGE =     7420254.0000         RIVER LEAKAGE =       30974.0391
            RECHARGE =           0.0000              RECHARGE =           0.0000

           TOTAL OUT =    12420766.0000             TOTAL OUT =       33000.1250

            IN - OUT =        8752.0000              IN - OUT =         124.5977

 PERCENT DISCREPANCY =           0.07     PERCENT DISCREPANCY =           0.38






         TIME SUMMARY AT END OF TIME STEP  180 IN STRESS PERIOD    1
                    SECONDS     MINUTES      HOURS       DAYS        YEARS
                    -----------------------------------------------------------
   TIME STEP LENGTH  86400.      1440.0      24.000      1.0000     2.73785E-03
 STRESS PERIOD TIME 1.55520E+07 2.59200E+05  4320.0      180.00     0.49281    
         TOTAL TIME 1.55520E+07 2.59200E+05  4320.0      180.00     0.49281    
1
 
 SOLVING FOR HEAD 
                                                   Max.-Head-Change                        Max.-Flux-Residual
  Residual-Control   Outer-Iter.   Inner-Iter.     Column Row Layer    Max.-Head-Change    Column Row Layer    Max.-Flux-Residual            L2-New               L2-Old           Solver-Max-Delh
          0                 1           2            38   21     1       0.2461594664E+00      29    3    1      -0.3135281936E+03      0.1959312051E+04      0.9837053205E+01      0.2461594664E+00
          0                 2           2            38   21     1      -0.2126326222E-01      29    3    1       0.3135003057E+02      0.1958949680E+03      0.1959312051E+04     -0.2126326222E-01

    ------------------------------------------------
       NWT REQUIRED            2 OUTER ITERATIONS 
       AND A TOTAL OF          4 INNER ITERATIONS.
    ------------------------------------------------

 OUTPUT CONTROL FOR STRESS PERIOD    1   TIME STEP  181
    SAVE HEAD FOR ALL LAYERS
    SAVE DRAWDOWN FOR ALL LAYERS
    SAVE BUDGET
    PRINT BUDGET
 UBDSV1 SAVING "         STORAGE" ON UNIT   9 AT TIME STEP181, STRESS PERIOD   1
 UBDSV2 SAVING "   CONSTANT HEAD" ON UNIT   9 AT TIME STEP181, STRESS PERIOD   1
 UBDSV1 SAVING "FLOW RIGHT FACE " ON UNIT   9 AT TIME STEP181, STRESS PERIOD   1
 UBDSV1 SAVING "FLOW FRONT FACE " ON UNIT   9 AT TIME STEP181, STRESS PERIOD   1
 UBDSV4 SAVING "   RIVER LEAKAGE" ON UNIT   9 AT TIME STEP181, STRESS PERIOD   1
 UBDSV3 SAVING "        RECHARGE" ON UNIT   9 AT TIME STEP181, STRESS PERIOD   1

 HEAD WILL BE SAVED ON UNIT 5037 AT END OF TIME STEP  181, STRESS PERIOD    1

 DRAWDOWN WILL BE SAVED ON UNIT   38 AT END OF TIME STEP  181, STRESS PERIOD    1
1
  VOLUMETRIC BUDGET FOR ENTIRE MODEL AT END OF TIME STEP  181, STRESS PERIOD   1
  ------------------------------------------------------------------------------

     CUMULATIVE VOLUMES      L**3       RATES FOR THIS TIME STEP      L**3/T
     ------------------                 ------------------------

           IN:                                      IN:
           ---                                      ---
             STORAGE =     8268521.5000               STORAGE =       26956.0352
       CONSTANT HEAD =           0.0000         CONSTANT HEAD =           0.0000
       RIVER LEAKAGE =     1062016.8750         RIVER LEAKAGE =        5975.3301
            RECHARGE =     3132034.7500              RECHARGE =         123.5440

            TOTAL IN =    12462573.0000              TOTAL IN =       33054.9102

          OUT:                                     OUT:
          ----                                     ----
             STORAGE =     5002507.5000               STORAGE =        1995.6587
       CONSTANT HEAD =           0.0000         CONSTANT HEAD =           0.0000
       RIVER LEAKAGE =     7451189.0000         RIVER LEAKAGE =       30934.8691
            RECHARGE =           0.0000              RECHARGE =           0.0000

           TOTAL OUT =    12453696.0000             TOTAL OUT =       32930.5273

            IN - OUT =        8877.0000              IN - OUT =         124.3828

 PERCENT DISCREPANCY =           0.07     PERCENT DISCREPANCY =           0.38






         TIME SUMMARY AT END OF TIME STEP  181 IN STRESS PERIOD    1
                    SECONDS     MINUTES      HOURS       DAYS        YEARS
                    -----------------------------------------------------------
   TIME STEP LENGTH  86400.      1440.0      24.000      1.0000     2.73785E-03
 STRESS PERIOD TIME 1.56384E+07 2.60640E+05  4344.0      181.00     0.49555    
         TOTAL TIME 1.56384E+07 2.60640E+05  4344.0      181.00     0.49555    
1
 
 SOLVING FOR HEAD 
                                                   Max.-Head-Change                        Max.-Flux-Residual
  Residual-Control   Outer-Iter.   Inner-Iter.     Column Row Layer    Max.-Head-Change    Column Row Layer    Max.-Flux-Residual            L2-New               L2-Old           Solver-Max-Delh
          0                 1           2            38   21     1       0.1881656026E+00      29    3    1      -0.3132755170E+03      0.1952012914E+04      0.9794473248E+01      0.1881656026E+00
          0                 2           2            38   19     1       0.7404752383E-01      29    3    1       0.3132476275E+02      0.1971002069E+03      0.1952012914E+04      0.7404752383E-01

    ------------------------------------------------
       NWT REQUIRED            2 OUTER ITERATIONS 
       AND A TOTAL OF          4 INNER ITERATIONS.
    ------------------------------------------------

 OUTPUT CONTROL FOR STRESS PERIOD    1   TIME STEP  182
    SAVE HEAD FOR ALL LAYERS
    SAVE DRAWDOWN FOR ALL LAYERS
    SAVE BUDGET
    PRINT BUDGET
 UBDSV1 SAVING "         STORAGE" ON UNIT   9 AT TIME STEP182, STRESS PERIOD   1
 UBDSV2 SAVING "   CONSTANT HEAD" ON UNIT   9 AT TIME STEP182, STRESS PERIOD   1
 UBDSV1 SAVING "FLOW RIGHT FACE " ON UNIT   9 AT TIME STEP182, STRESS PERIOD   1
 UBDSV1 SAVING "FLOW FRONT FACE " ON UNIT   9 AT TIME STEP182, STRESS PERIOD   1
 UBDSV4 SAVING "   RIVER LEAKAGE" ON UNIT   9 AT TIME STEP182, STRESS PERIOD   1
 UBDSV3 SAVING "        RECHARGE" ON UNIT   9 AT TIME STEP182, STRESS PERIOD   1

 HEAD WILL BE SAVED ON UNIT 5037 AT END OF TIME STEP  182, STRESS PERIOD    1

 DRAWDOWN WILL BE SAVED ON UNIT   38 AT END OF TIME STEP  182, STRESS PERIOD    1
1
  VOLUMETRIC BUDGET FOR ENTIRE MODEL AT END OF TIME STEP  182, STRESS PERIOD   1
  ------------------------------------------------------------------------------

     CUMULATIVE VOLUMES      L**3       RATES FOR THIS TIME STEP      L**3/T
     ------------------                 ------------------------

           IN:                                      IN:
           ---                                      ---
             STORAGE =     8295403.5000               STORAGE =       26882.1641
       CONSTANT HEAD =           0.0000         CONSTANT HEAD =           0.0000
       RIVER LEAKAGE =     1067998.2500         RIVER LEAKAGE =        5981.3613
            RECHARGE =     3132156.5000              RECHARGE =         121.8331

            TOTAL IN =    12495558.0000              TOTAL IN =       32985.3555

          OUT:                                     OUT:
          ----                                     ----
             STORAGE =     5004474.5000               STORAGE =        1966.8232
       CONSTANT HEAD =           0.0000         CONSTANT HEAD =           0.0000
       RIVER LEAKAGE =     7482085.0000         RIVER LEAKAGE =       30895.9160
            RECHARGE =           0.0000              RECHARGE =           0.0000

           TOTAL OUT =    12486560.0000             TOTAL OUT =       32862.7383

            IN - OUT =        8998.0000              IN - OUT =         122.6172

 PERCENT DISCREPANCY =           0.07     PERCENT DISCREPANCY =           0.37






         TIME SUMMARY AT END OF TIME STEP  182 IN STRESS PERIOD    1
                    SECONDS     MINUTES      HOURS       DAYS        YEARS
                    -----------------------------------------------------------
   TIME STEP LENGTH  86400.      1440.0      24.000      1.0000     2.73785E-03
 STRESS PERIOD TIME 1.57248E+07 2.62080E+05  4368.0      182.00     0.49829    
         TOTAL TIME 1.57248E+07 2.62080E+05  4368.0      182.00     0.49829    
1
 
 SOLVING FOR HEAD 
                                                   Max.-Head-Change                        Max.-Flux-Residual
  Residual-Control   Outer-Iter.   Inner-Iter.     Column Row Layer    Max.-Head-Change    Column Row Layer    Max.-Flux-Residual            L2-New               L2-Old           Solver-Max-Delh
          0                 1           2            38   21     1       0.1472242024E+00      29    3    1      -0.3130109644E+03      0.1945010994E+04      0.1017241582E+02      0.1472242024E+00
          0                 2           2            27   17     1       0.1645254861E+00      27   17    1       0.4075668684E+02      0.1986200963E+03      0.1945010994E+04      0.1645254861E+00
          0                 3           2            27   17     1      -0.1420906719E-01      27   17    1      -0.4097260906E+01      0.1056095406E+02      0.1986200963E+03     -0.1420906719E-01

    ------------------------------------------------
       NWT REQUIRED            3 OUTER ITERATIONS 
       AND A TOTAL OF          6 INNER ITERATIONS.
    ------------------------------------------------

 OUTPUT CONTROL FOR STRESS PERIOD    1   TIME STEP  183
    SAVE HEAD FOR ALL LAYERS
    SAVE DRAWDOWN FOR ALL LAYERS
    SAVE BUDGET
    PRINT BUDGET
 UBDSV1 SAVING "         STORAGE" ON UNIT   9 AT TIME STEP183, STRESS PERIOD   1
 UBDSV2 SAVING "   CONSTANT HEAD" ON UNIT   9 AT TIME STEP183, STRESS PERIOD   1
 UBDSV1 SAVING "FLOW RIGHT FACE " ON UNIT   9 AT TIME STEP183, STRESS PERIOD   1
 UBDSV1 SAVING "FLOW FRONT FACE " ON UNIT   9 AT TIME STEP183, STRESS PERIOD   1
 UBDSV4 SAVING "   RIVER LEAKAGE" ON UNIT   9 AT TIME STEP183, STRESS PERIOD   1
 UBDSV3 SAVING "        RECHARGE" ON UNIT   9 AT TIME STEP183, STRESS PERIOD   1

 HEAD WILL BE SAVED ON UNIT 5037 AT END OF TIME STEP  183, STRESS PERIOD    1

 DRAWDOWN WILL BE SAVED ON UNIT   38 AT END OF TIME STEP  183, STRESS PERIOD    1
1
  VOLUMETRIC BUDGET FOR ENTIRE MODEL AT END OF TIME STEP  183, STRESS PERIOD   1
  ------------------------------------------------------------------------------

     CUMULATIVE VOLUMES      L**3       RATES FOR THIS TIME STEP      L**3/T
     ------------------                 ------------------------

           IN:                                      IN:
           ---                                      ---
             STORAGE =     8322082.5000               STORAGE =       26679.0293
       CONSTANT HEAD =           0.0000         CONSTANT HEAD =           0.0000
       RIVER LEAKAGE =     1073985.6250         RIVER LEAKAGE =        5987.3384
            RECHARGE =     3132276.7500              RECHARGE =         120.1609

            TOTAL IN =    12528345.0000              TOTAL IN =       32786.5273

          OUT:                                     OUT:
          ----                                     ----
             STORAGE =     5006392.5000               STORAGE =        1918.1199
       CONSTANT HEAD =           0.0000         CONSTANT HEAD =           0.0000
       RIVER LEAKAGE =     7512947.5000         RIVER LEAKAGE =       30862.3613
            RECHARGE =           0.0000              RECHARGE =           0.0000

           TOTAL OUT =    12519340.0000             TOTAL OUT =       32780.4805

            IN - OUT =        9005.0000              IN - OUT =           6.0469

 PERCENT DISCREPANCY =           0.07     PERCENT DISCREPANCY =           0.02






         TIME SUMMARY AT END OF TIME STEP  183 IN STRESS PERIOD    1
                    SECONDS     MINUTES      HOURS       DAYS        YEARS
                    -----------------------------------------------------------
   TIME STEP LENGTH  86400.      1440.0      24.000      1.0000     2.73785E-03
 STRESS PERIOD TIME 1.58112E+07 2.63520E+05  4392.0      183.00     0.50103    
         TOTAL TIME 1.58112E+07 2.63520E+05  4392.0      183.00     0.50103    
1
 
 SOLVING FOR HEAD 
                                                   Max.-Head-Change                        Max.-Flux-Residual
  Residual-Control   Outer-Iter.   Inner-Iter.     Column Row Layer    Max.-Head-Change    Column Row Layer    Max.-Flux-Residual            L2-New               L2-Old           Solver-Max-Delh
          0                 1           2            27   17     1       0.1634768689E+00      29    3    1      -0.3127475127E+03      0.1937965672E+04      0.1056095406E+02      0.1634768689E+00
          0                 2           2            27   17     1      -0.1411845484E-01      29    3    1       0.3127196209E+02      0.1937612710E+03      0.1937965672E+04     -0.1411845484E-01

    ------------------------------------------------
       NWT REQUIRED            2 OUTER ITERATIONS 
       AND A TOTAL OF          4 INNER ITERATIONS.
    ------------------------------------------------

 OUTPUT CONTROL FOR STRESS PERIOD    1   TIME STEP  184
    SAVE HEAD FOR ALL LAYERS
    SAVE DRAWDOWN FOR ALL LAYERS
    SAVE BUDGET
    PRINT BUDGET
 UBDSV1 SAVING "         STORAGE" ON UNIT   9 AT TIME STEP184, STRESS PERIOD   1
 UBDSV2 SAVING "   CONSTANT HEAD" ON UNIT   9 AT TIME STEP184, STRESS PERIOD   1
 UBDSV1 SAVING "FLOW RIGHT FACE " ON UNIT   9 AT TIME STEP184, STRESS PERIOD   1
 UBDSV1 SAVING "FLOW FRONT FACE " ON UNIT   9 AT TIME STEP184, STRESS PERIOD   1
 UBDSV4 SAVING "   RIVER LEAKAGE" ON UNIT   9 AT TIME STEP184, STRESS PERIOD   1
 UBDSV3 SAVING "        RECHARGE" ON UNIT   9 AT TIME STEP184, STRESS PERIOD   1

 HEAD WILL BE SAVED ON UNIT 5037 AT END OF TIME STEP  184, STRESS PERIOD    1

 DRAWDOWN WILL BE SAVED ON UNIT   38 AT END OF TIME STEP  184, STRESS PERIOD    1
1
  VOLUMETRIC BUDGET FOR ENTIRE MODEL AT END OF TIME STEP  184, STRESS PERIOD   1
  ------------------------------------------------------------------------------

     CUMULATIVE VOLUMES      L**3       RATES FOR THIS TIME STEP      L**3/T
     ------------------                 ------------------------

           IN:                                      IN:
           ---                                      ---
             STORAGE =     8348815.0000               STORAGE =       26732.6855
       CONSTANT HEAD =           0.0000         CONSTANT HEAD =           0.0000
       RIVER LEAKAGE =     1079979.0000         RIVER LEAKAGE =        5993.3330
            RECHARGE =     3132395.2500              RECHARGE =         118.5261

            TOTAL IN =    12561189.0000              TOTAL IN =       32844.5469

          OUT:                                     OUT:
          ----                                     ----
             STORAGE =     5008283.0000               STORAGE =        1890.4352
       CONSTANT HEAD =           0.0000         CONSTANT HEAD =           0.0000
       RIVER LEAKAGE =     7543778.0000         RIVER LEAKAGE =       30830.3496
            RECHARGE =           0.0000              RECHARGE =           0.0000

           TOTAL OUT =    12552061.0000             TOTAL OUT =       32720.7852

            IN - OUT =        9128.0000              IN - OUT =         123.7617

 PERCENT DISCREPANCY =           0.07     PERCENT DISCREPANCY =           0.38






         TIME SUMMARY AT END OF TIME STEP  184 IN STRESS PERIOD    1
                    SECONDS     MINUTES      HOURS       DAYS        YEARS
                    -----------------------------------------------------------
   TIME STEP LENGTH  86400.      1440.0      24.000      1.0000     2.73785E-03
 STRESS PERIOD TIME 1.58976E+07 2.64960E+05  4416.0      184.00     0.50376    
         TOTAL TIME 1.58976E+07 2.64960E+05  4416.0      184.00     0.50376    
1
 
 SOLVING FOR HEAD 
                                                   Max.-Head-Change                        Max.-Flux-Residual
  Residual-Control   Outer-Iter.   Inner-Iter.     Column Row Layer    Max.-Head-Change    Column Row Layer    Max.-Flux-Residual            L2-New               L2-Old           Solver-Max-Delh
          0                 1           2            27   17     1       0.1219499852E+00      29    3    1      -0.3124717367E+03      0.1931314850E+04      0.9687794452E+01      0.1219499852E+00
          0                 2           2            27   17     1      -0.1133566028E-01      29    3    1       0.3124438535E+02      0.1931010632E+03      0.1931314850E+04     -0.1133566028E-01

    ------------------------------------------------
       NWT REQUIRED            2 OUTER ITERATIONS 
       AND A TOTAL OF          4 INNER ITERATIONS.
    ------------------------------------------------

 OUTPUT CONTROL FOR STRESS PERIOD    1   TIME STEP  185
    SAVE HEAD FOR ALL LAYERS
    SAVE DRAWDOWN FOR ALL LAYERS
    SAVE BUDGET
    PRINT BUDGET
 UBDSV1 SAVING "         STORAGE" ON UNIT   9 AT TIME STEP185, STRESS PERIOD   1
 UBDSV2 SAVING "   CONSTANT HEAD" ON UNIT   9 AT TIME STEP185, STRESS PERIOD   1
 UBDSV1 SAVING "FLOW RIGHT FACE " ON UNIT   9 AT TIME STEP185, STRESS PERIOD   1
 UBDSV1 SAVING "FLOW FRONT FACE " ON UNIT   9 AT TIME STEP185, STRESS PERIOD   1
 UBDSV4 SAVING "   RIVER LEAKAGE" ON UNIT   9 AT TIME STEP185, STRESS PERIOD   1
 UBDSV3 SAVING "        RECHARGE" ON UNIT   9 AT TIME STEP185, STRESS PERIOD   1

 HEAD WILL BE SAVED ON UNIT 5037 AT END OF TIME STEP  185, STRESS PERIOD    1

 DRAWDOWN WILL BE SAVED ON UNIT   38 AT END OF TIME STEP  185, STRESS PERIOD    1
1
  VOLUMETRIC BUDGET FOR ENTIRE MODEL AT END OF TIME STEP  185, STRESS PERIOD   1
  ------------------------------------------------------------------------------

     CUMULATIVE VOLUMES      L**3       RATES FOR THIS TIME STEP      L**3/T
     ------------------                 ------------------------

           IN:                                      IN:
           ---                                      ---
             STORAGE =     8375476.5000               STORAGE =       26661.6660
       CONSTANT HEAD =           0.0000         CONSTANT HEAD =           0.0000
       RIVER LEAKAGE =     1085978.2500         RIVER LEAKAGE =        5999.2788
            RECHARGE =     3132512.2500              RECHARGE =         116.9276

            TOTAL IN =    12593967.0000              TOTAL IN =       32777.8711

          OUT:                                     OUT:
          ----                                     ----
             STORAGE =     5010140.0000               STORAGE =        1856.9409
       CONSTANT HEAD =           0.0000         CONSTANT HEAD =           0.0000
       RIVER LEAKAGE =     7574575.5000         RIVER LEAKAGE =       30797.3555
            RECHARGE =           0.0000              RECHARGE =           0.0000

           TOTAL OUT =    12584716.0000             TOTAL OUT =       32654.2969

            IN - OUT =        9251.0000              IN - OUT =         123.5742

 PERCENT DISCREPANCY =           0.07     PERCENT DISCREPANCY =           0.38






         TIME SUMMARY AT END OF TIME STEP  185 IN STRESS PERIOD    1
                    SECONDS     MINUTES      HOURS       DAYS        YEARS
                    -----------------------------------------------------------
   TIME STEP LENGTH  86400.      1440.0      24.000      1.0000     2.73785E-03
 STRESS PERIOD TIME 1.59840E+07 2.66400E+05  4440.0      185.00     0.50650    
         TOTAL TIME 1.59840E+07 2.66400E+05  4440.0      185.00     0.50650    
1
 
 SOLVING FOR HEAD 
                                                   Max.-Head-Change                        Max.-Flux-Residual
  Residual-Control   Outer-Iter.   Inner-Iter.     Column Row Layer    Max.-Head-Change    Column Row Layer    Max.-Flux-Residual            L2-New               L2-Old           Solver-Max-Delh
          0                 1           2            27   17     1       0.8946141735E-01      29    3    1      -0.3121988867E+03      0.1924926173E+04      0.9653499087E+01      0.8946141735E-01
          0                 2           2            27   17     1      -0.7726122395E-02      29    3    1       0.3121710079E+02      0.1924394490E+03      0.1924926173E+04     -0.7726122395E-02

    ------------------------------------------------
       NWT REQUIRED            2 OUTER ITERATIONS 
       AND A TOTAL OF          4 INNER ITERATIONS.
    ------------------------------------------------

 OUTPUT CONTROL FOR STRESS PERIOD    1   TIME STEP  186
    SAVE HEAD FOR ALL LAYERS
    SAVE DRAWDOWN FOR ALL LAYERS
    SAVE BUDGET
    PRINT BUDGET
 UBDSV1 SAVING "         STORAGE" ON UNIT   9 AT TIME STEP186, STRESS PERIOD   1
 UBDSV2 SAVING "   CONSTANT HEAD" ON UNIT   9 AT TIME STEP186, STRESS PERIOD   1
 UBDSV1 SAVING "FLOW RIGHT FACE " ON UNIT   9 AT TIME STEP186, STRESS PERIOD   1
 UBDSV1 SAVING "FLOW FRONT FACE " ON UNIT   9 AT TIME STEP186, STRESS PERIOD   1
 UBDSV4 SAVING "   RIVER LEAKAGE" ON UNIT   9 AT TIME STEP186, STRESS PERIOD   1
 UBDSV3 SAVING "        RECHARGE" ON UNIT   9 AT TIME STEP186, STRESS PERIOD   1

 HEAD WILL BE SAVED ON UNIT 5037 AT END OF TIME STEP  186, STRESS PERIOD    1

 DRAWDOWN WILL BE SAVED ON UNIT   38 AT END OF TIME STEP  186, STRESS PERIOD    1
1
  VOLUMETRIC BUDGET FOR ENTIRE MODEL AT END OF TIME STEP  186, STRESS PERIOD   1
  ------------------------------------------------------------------------------

     CUMULATIVE VOLUMES      L**3       RATES FOR THIS TIME STEP      L**3/T
     ------------------                 ------------------------

           IN:                                      IN:
           ---                                      ---
             STORAGE =     8402069.0000               STORAGE =       26592.8145
       CONSTANT HEAD =           0.0000         CONSTANT HEAD =           0.0000
       RIVER LEAKAGE =     1091983.5000         RIVER LEAKAGE =        6005.1963
            RECHARGE =     3132627.5000              RECHARGE =         115.3642

            TOTAL IN =    12626680.0000              TOTAL IN =       32713.3750

          OUT:                                     OUT:
          ----                                     ----
             STORAGE =     5011966.5000               STORAGE =        1826.5474
       CONSTANT HEAD =           0.0000         CONSTANT HEAD =           0.0000
       RIVER LEAKAGE =     7605339.0000         RIVER LEAKAGE =       30763.4375
            RECHARGE =           0.0000              RECHARGE =           0.0000

           TOTAL OUT =    12617306.0000             TOTAL OUT =       32589.9844

            IN - OUT =        9374.0000              IN - OUT =         123.3906

 PERCENT DISCREPANCY =           0.07     PERCENT DISCREPANCY =           0.38






         TIME SUMMARY AT END OF TIME STEP  186 IN STRESS PERIOD    1
                    SECONDS     MINUTES      HOURS       DAYS        YEARS
                    -----------------------------------------------------------
   TIME STEP LENGTH  86400.      1440.0      24.000      1.0000     2.73785E-03
 STRESS PERIOD TIME 1.60704E+07 2.67840E+05  4464.0      186.00     0.50924    
         TOTAL TIME 1.60704E+07 2.67840E+05  4464.0      186.00     0.50924    
1
 
 SOLVING FOR HEAD 
                                                   Max.-Head-Change                        Max.-Flux-Residual
  Residual-Control   Outer-Iter.   Inner-Iter.     Column Row Layer    Max.-Head-Change    Column Row Layer    Max.-Flux-Residual            L2-New               L2-Old           Solver-Max-Delh
          0                 1           2            27   17     1       0.6681667182E-01      29    3    1      -0.3119142361E+03      0.1918721617E+04      0.9621708806E+01      0.6681667182E-01
          0                 2           2            27   17     1      -0.5770436056E-02      18    8    1       0.5583880204E+02      0.1997986344E+03      0.1918721617E+04     -0.5770436056E-02

    ------------------------------------------------
       NWT REQUIRED            2 OUTER ITERATIONS 
       AND A TOTAL OF          4 INNER ITERATIONS.
    ------------------------------------------------

 OUTPUT CONTROL FOR STRESS PERIOD    1   TIME STEP  187
    SAVE HEAD FOR ALL LAYERS
    SAVE DRAWDOWN FOR ALL LAYERS
    SAVE BUDGET
    PRINT BUDGET
 UBDSV1 SAVING "         STORAGE" ON UNIT   9 AT TIME STEP187, STRESS PERIOD   1
 UBDSV2 SAVING "   CONSTANT HEAD" ON UNIT   9 AT TIME STEP187, STRESS PERIOD   1
 UBDSV1 SAVING "FLOW RIGHT FACE " ON UNIT   9 AT TIME STEP187, STRESS PERIOD   1
 UBDSV1 SAVING "FLOW FRONT FACE " ON UNIT   9 AT TIME STEP187, STRESS PERIOD   1
 UBDSV4 SAVING "   RIVER LEAKAGE" ON UNIT   9 AT TIME STEP187, STRESS PERIOD   1
 UBDSV3 SAVING "        RECHARGE" ON UNIT   9 AT TIME STEP187, STRESS PERIOD   1

 HEAD WILL BE SAVED ON UNIT 5037 AT END OF TIME STEP  187, STRESS PERIOD    1

 DRAWDOWN WILL BE SAVED ON UNIT   38 AT END OF TIME STEP  187, STRESS PERIOD    1
1
  VOLUMETRIC BUDGET FOR ENTIRE MODEL AT END OF TIME STEP  187, STRESS PERIOD   1
  ------------------------------------------------------------------------------

     CUMULATIVE VOLUMES      L**3       RATES FOR THIS TIME STEP      L**3/T
     ------------------                 ------------------------

           IN:                                      IN:
           ---                                      ---
             STORAGE =     8428597.0000               STORAGE =       26528.1621
       CONSTANT HEAD =           0.0000         CONSTANT HEAD =           0.0000
       RIVER LEAKAGE =     1097994.6250         RIVER LEAKAGE =        6011.0928
            RECHARGE =     3132741.2500              RECHARGE =         113.8348

            TOTAL IN =    12659333.0000              TOTAL IN =       32653.0879

          OUT:                                     OUT:
          ----                                     ----
             STORAGE =     5013765.0000               STORAGE =        1798.2970
       CONSTANT HEAD =           0.0000         CONSTANT HEAD =           0.0000
       RIVER LEAKAGE =     7636068.0000         RIVER LEAKAGE =       30728.8105
            RECHARGE =           0.0000              RECHARGE =           0.0000

           TOTAL OUT =    12649833.0000             TOTAL OUT =       32527.1074

            IN - OUT =        9500.0000              IN - OUT =         125.9805

 PERCENT DISCREPANCY =           0.08     PERCENT DISCREPANCY =           0.39






         TIME SUMMARY AT END OF TIME STEP  187 IN STRESS PERIOD    1
                    SECONDS     MINUTES      HOURS       DAYS        YEARS
                    -----------------------------------------------------------
   TIME STEP LENGTH  86400.      1440.0      24.000      1.0000     2.73785E-03
 STRESS PERIOD TIME 1.61568E+07 2.69280E+05  4488.0      187.00     0.51198    
         TOTAL TIME 1.61568E+07 2.69280E+05  4488.0      187.00     0.51198    
1
 
 SOLVING FOR HEAD 
                                                   Max.-Head-Change                        Max.-Flux-Residual
  Residual-Control   Outer-Iter.   Inner-Iter.     Column Row Layer    Max.-Head-Change    Column Row Layer    Max.-Flux-Residual            L2-New               L2-Old           Solver-Max-Delh
          0                 1           2            38   21     1       0.5528129300E-01      29    3    1      -0.3116330329E+03      0.1912622513E+04      0.9989588632E+01      0.5528129300E-01
          0                 2           2            38   21     1      -0.4775371124E-02      29    3    1       0.3116051768E+02      0.1912281214E+03      0.1912622513E+04     -0.4775371124E-02

    ------------------------------------------------
       NWT REQUIRED            2 OUTER ITERATIONS 
       AND A TOTAL OF          4 INNER ITERATIONS.
    ------------------------------------------------

 OUTPUT CONTROL FOR STRESS PERIOD    1   TIME STEP  188
    SAVE HEAD FOR ALL LAYERS
    SAVE DRAWDOWN FOR ALL LAYERS
    SAVE BUDGET
    PRINT BUDGET
 UBDSV1 SAVING "         STORAGE" ON UNIT   9 AT TIME STEP188, STRESS PERIOD   1
 UBDSV2 SAVING "   CONSTANT HEAD" ON UNIT   9 AT TIME STEP188, STRESS PERIOD   1
 UBDSV1 SAVING "FLOW RIGHT FACE " ON UNIT   9 AT TIME STEP188, STRESS PERIOD   1
 UBDSV1 SAVING "FLOW FRONT FACE " ON UNIT   9 AT TIME STEP188, STRESS PERIOD   1
 UBDSV4 SAVING "   RIVER LEAKAGE" ON UNIT   9 AT TIME STEP188, STRESS PERIOD   1
 UBDSV3 SAVING "        RECHARGE" ON UNIT   9 AT TIME STEP188, STRESS PERIOD   1

 HEAD WILL BE SAVED ON UNIT 5037 AT END OF TIME STEP  188, STRESS PERIOD    1

 DRAWDOWN WILL BE SAVED ON UNIT   38 AT END OF TIME STEP  188, STRESS PERIOD    1
1
  VOLUMETRIC BUDGET FOR ENTIRE MODEL AT END OF TIME STEP  188, STRESS PERIOD   1
  ------------------------------------------------------------------------------

     CUMULATIVE VOLUMES      L**3       RATES FOR THIS TIME STEP      L**3/T
     ------------------                 ------------------------

           IN:                                      IN:
           ---                                      ---
             STORAGE =     8455057.0000               STORAGE =       26459.8770
       CONSTANT HEAD =           0.0000         CONSTANT HEAD =           0.0000
       RIVER LEAKAGE =     1104011.6250         RIVER LEAKAGE =        6016.9521
            RECHARGE =     3132853.5000              RECHARGE =         112.3385

            TOTAL IN =    12691922.0000              TOTAL IN =       32589.1660

          OUT:                                     OUT:
          ----                                     ----
             STORAGE =     5015537.5000               STORAGE =        1772.5024
       CONSTANT HEAD =           0.0000         CONSTANT HEAD =           0.0000
       RIVER LEAKAGE =     7666761.5000         RIVER LEAKAGE =       30693.6602
            RECHARGE =           0.0000              RECHARGE =           0.0000

           TOTAL OUT =    12682299.0000             TOTAL OUT =       32466.1621

            IN - OUT =        9623.0000              IN - OUT =         123.0039

 PERCENT DISCREPANCY =           0.08     PERCENT DISCREPANCY =           0.38






         TIME SUMMARY AT END OF TIME STEP  188 IN STRESS PERIOD    1
                    SECONDS     MINUTES      HOURS       DAYS        YEARS
                    -----------------------------------------------------------
   TIME STEP LENGTH  86400.      1440.0      24.000      1.0000     2.73785E-03
 STRESS PERIOD TIME 1.62432E+07 2.70720E+05  4512.0      188.00     0.51472    
         TOTAL TIME 1.62432E+07 2.70720E+05  4512.0      188.00     0.51472    
1
 
 SOLVING FOR HEAD 
                                                   Max.-Head-Change                        Max.-Flux-Residual
  Residual-Control   Outer-Iter.   Inner-Iter.     Column Row Layer    Max.-Head-Change    Column Row Layer    Max.-Flux-Residual            L2-New               L2-Old           Solver-Max-Delh
          0                 1           2            39   21     1       0.4796592010E-01      29    3    1      -0.3113541875E+03      0.1906601751E+04      0.9561146746E+01      0.4796592010E-01
          0                 2           2            39   21     1      -0.4142610677E-02      29    3    1       0.3113263406E+02      0.1906263410E+03      0.1906601751E+04     -0.4142610677E-02

    ------------------------------------------------
       NWT REQUIRED            2 OUTER ITERATIONS 
       AND A TOTAL OF          4 INNER ITERATIONS.
    ------------------------------------------------

 OUTPUT CONTROL FOR STRESS PERIOD    1   TIME STEP  189
    SAVE HEAD FOR ALL LAYERS
    SAVE DRAWDOWN FOR ALL LAYERS
    SAVE BUDGET
    PRINT BUDGET
 UBDSV1 SAVING "         STORAGE" ON UNIT   9 AT TIME STEP189, STRESS PERIOD   1
 UBDSV2 SAVING "   CONSTANT HEAD" ON UNIT   9 AT TIME STEP189, STRESS PERIOD   1
 UBDSV1 SAVING "FLOW RIGHT FACE " ON UNIT   9 AT TIME STEP189, STRESS PERIOD   1
 UBDSV1 SAVING "FLOW FRONT FACE " ON UNIT   9 AT TIME STEP189, STRESS PERIOD   1
 UBDSV4 SAVING "   RIVER LEAKAGE" ON UNIT   9 AT TIME STEP189, STRESS PERIOD   1
 UBDSV3 SAVING "        RECHARGE" ON UNIT   9 AT TIME STEP189, STRESS PERIOD   1

 HEAD WILL BE SAVED ON UNIT 5037 AT END OF TIME STEP  189, STRESS PERIOD    1

 DRAWDOWN WILL BE SAVED ON UNIT   38 AT END OF TIME STEP  189, STRESS PERIOD    1
1
  VOLUMETRIC BUDGET FOR ENTIRE MODEL AT END OF TIME STEP  189, STRESS PERIOD   1
  ------------------------------------------------------------------------------

     CUMULATIVE VOLUMES      L**3       RATES FOR THIS TIME STEP      L**3/T
     ------------------                 ------------------------

           IN:                                      IN:
           ---                                      ---
             STORAGE =     8481454.0000               STORAGE =       26396.5273
       CONSTANT HEAD =           0.0000         CONSTANT HEAD =           0.0000
       RIVER LEAKAGE =     1110034.3750         RIVER LEAKAGE =        6022.7881
            RECHARGE =     3132964.2500              RECHARGE =         110.8742

            TOTAL IN =    12724452.0000              TOTAL IN =       32530.1914

          OUT:                                     OUT:
          ----                                     ----
             STORAGE =     5017286.5000               STORAGE =        1749.2263
       CONSTANT HEAD =           0.0000         CONSTANT HEAD =           0.0000
       RIVER LEAKAGE =     7697419.5000         RIVER LEAKAGE =       30658.1562
            RECHARGE =           0.0000              RECHARGE =           0.0000

           TOTAL OUT =    12714706.0000             TOTAL OUT =       32407.3828

            IN - OUT =        9746.0000              IN - OUT =         122.8086

 PERCENT DISCREPANCY =           0.08     PERCENT DISCREPANCY =           0.38






         TIME SUMMARY AT END OF TIME STEP  189 IN STRESS PERIOD    1
                    SECONDS     MINUTES      HOURS       DAYS        YEARS
                    -----------------------------------------------------------
   TIME STEP LENGTH  86400.      1440.0      24.000      1.0000     2.73785E-03
 STRESS PERIOD TIME 1.63296E+07 2.72160E+05  4536.0      189.00     0.51745    
         TOTAL TIME 1.63296E+07 2.72160E+05  4536.0      189.00     0.51745    
1
 
 SOLVING FOR HEAD 
                                                   Max.-Head-Change                        Max.-Flux-Residual
  Residual-Control   Outer-Iter.   Inner-Iter.     Column Row Layer    Max.-Head-Change    Column Row Layer    Max.-Flux-Residual            L2-New               L2-Old           Solver-Max-Delh
          0                 1           2            39   21     1       0.4483875556E-01      29    3    1      -0.3110640287E+03      0.1900655924E+04      0.9531059946E+01      0.4483875556E-01
          0                 2           2            39   21     1      -0.3872524548E-02      29    3    1       0.3110361951E+02      0.1900323141E+03      0.1900655924E+04     -0.3872524548E-02

    ------------------------------------------------
       NWT REQUIRED            2 OUTER ITERATIONS 
       AND A TOTAL OF          4 INNER ITERATIONS.
    ------------------------------------------------

 OUTPUT CONTROL FOR STRESS PERIOD    1   TIME STEP  190
    SAVE HEAD FOR ALL LAYERS
    SAVE DRAWDOWN FOR ALL LAYERS
    SAVE BUDGET
    PRINT BUDGET
 UBDSV1 SAVING "         STORAGE" ON UNIT   9 AT TIME STEP190, STRESS PERIOD   1
 UBDSV2 SAVING "   CONSTANT HEAD" ON UNIT   9 AT TIME STEP190, STRESS PERIOD   1
 UBDSV1 SAVING "FLOW RIGHT FACE " ON UNIT   9 AT TIME STEP190, STRESS PERIOD   1
 UBDSV1 SAVING "FLOW FRONT FACE " ON UNIT   9 AT TIME STEP190, STRESS PERIOD   1
 UBDSV4 SAVING "   RIVER LEAKAGE" ON UNIT   9 AT TIME STEP190, STRESS PERIOD   1
 UBDSV3 SAVING "        RECHARGE" ON UNIT   9 AT TIME STEP190, STRESS PERIOD   1

 HEAD WILL BE SAVED ON UNIT 5037 AT END OF TIME STEP  190, STRESS PERIOD    1

 DRAWDOWN WILL BE SAVED ON UNIT   38 AT END OF TIME STEP  190, STRESS PERIOD    1
1
  VOLUMETRIC BUDGET FOR ENTIRE MODEL AT END OF TIME STEP  190, STRESS PERIOD   1
  ------------------------------------------------------------------------------

     CUMULATIVE VOLUMES      L**3       RATES FOR THIS TIME STEP      L**3/T
     ------------------                 ------------------------

           IN:                                      IN:
           ---                                      ---
             STORAGE =     8507788.0000               STORAGE =       26334.3691
       CONSTANT HEAD =           0.0000         CONSTANT HEAD =           0.0000
       RIVER LEAKAGE =     1116063.0000         RIVER LEAKAGE =        6028.6040
            RECHARGE =     3133073.7500              RECHARGE =         109.4410

            TOTAL IN =    12756925.0000              TOTAL IN =       32472.4141

          OUT:                                     OUT:
          ----                                     ----
             STORAGE =     5019014.0000               STORAGE =        1727.3938
       CONSTANT HEAD =           0.0000         CONSTANT HEAD =           0.0000
       RIVER LEAKAGE =     7728042.0000         RIVER LEAKAGE =       30622.4121
            RECHARGE =           0.0000              RECHARGE =           0.0000

           TOTAL OUT =    12747056.0000             TOTAL OUT =       32349.8066

            IN - OUT =        9869.0000              IN - OUT =         122.6074

 PERCENT DISCREPANCY =           0.08     PERCENT DISCREPANCY =           0.38






         TIME SUMMARY AT END OF TIME STEP  190 IN STRESS PERIOD    1
                    SECONDS     MINUTES      HOURS       DAYS        YEARS
                    -----------------------------------------------------------
   TIME STEP LENGTH  86400.      1440.0      24.000      1.0000     2.73785E-03
 STRESS PERIOD TIME 1.64160E+07 2.73600E+05  4560.0      190.00     0.52019    
         TOTAL TIME 1.64160E+07 2.73600E+05  4560.0      190.00     0.52019    
1
 
 SOLVING FOR HEAD 
                                                   Max.-Head-Change                        Max.-Flux-Residual
  Residual-Control   Outer-Iter.   Inner-Iter.     Column Row Layer    Max.-Head-Change    Column Row Layer    Max.-Flux-Residual            L2-New               L2-Old           Solver-Max-Delh
          0                 1           2            40   21     1       0.4235634905E-01      29    3    1      -0.3107766842E+03      0.1894769253E+04      0.9501428158E+01      0.4235634905E-01
          0                 2           2            40   21     1      -0.3658056306E-02      29    3    1       0.3107488695E+02      0.1894444698E+03      0.1894769253E+04     -0.3658056306E-02

    ------------------------------------------------
       NWT REQUIRED            2 OUTER ITERATIONS 
       AND A TOTAL OF          4 INNER ITERATIONS.
    ------------------------------------------------

 OUTPUT CONTROL FOR STRESS PERIOD    1   TIME STEP  191
    SAVE HEAD FOR ALL LAYERS
    SAVE DRAWDOWN FOR ALL LAYERS
    SAVE BUDGET
    PRINT BUDGET
 UBDSV1 SAVING "         STORAGE" ON UNIT   9 AT TIME STEP191, STRESS PERIOD   1
 UBDSV2 SAVING "   CONSTANT HEAD" ON UNIT   9 AT TIME STEP191, STRESS PERIOD   1
 UBDSV1 SAVING "FLOW RIGHT FACE " ON UNIT   9 AT TIME STEP191, STRESS PERIOD   1
 UBDSV1 SAVING "FLOW FRONT FACE " ON UNIT   9 AT TIME STEP191, STRESS PERIOD   1
 UBDSV4 SAVING "   RIVER LEAKAGE" ON UNIT   9 AT TIME STEP191, STRESS PERIOD   1
 UBDSV3 SAVING "        RECHARGE" ON UNIT   9 AT TIME STEP191, STRESS PERIOD   1

 HEAD WILL BE SAVED ON UNIT 5037 AT END OF TIME STEP  191, STRESS PERIOD    1

 DRAWDOWN WILL BE SAVED ON UNIT   38 AT END OF TIME STEP  191, STRESS PERIOD    1
1
  VOLUMETRIC BUDGET FOR ENTIRE MODEL AT END OF TIME STEP  191, STRESS PERIOD   1
  ------------------------------------------------------------------------------

     CUMULATIVE VOLUMES      L**3       RATES FOR THIS TIME STEP      L**3/T
     ------------------                 ------------------------

           IN:                                      IN:
           ---                                      ---
             STORAGE =     8534061.0000               STORAGE =       26273.1895
       CONSTANT HEAD =           0.0000         CONSTANT HEAD =           0.0000
       RIVER LEAKAGE =     1122097.3750         RIVER LEAKAGE =        6034.3955
            RECHARGE =     3133181.7500              RECHARGE =         108.0380

            TOTAL IN =    12789340.0000              TOTAL IN =       32415.6230

          OUT:                                     OUT:
          ----                                     ----
             STORAGE =     5020720.5000               STORAGE =        1706.6895
       CONSTANT HEAD =           0.0000         CONSTANT HEAD =           0.0000
       RIVER LEAKAGE =     7758628.5000         RIVER LEAKAGE =       30586.5254
            RECHARGE =           0.0000              RECHARGE =           0.0000

           TOTAL OUT =    12779349.0000             TOTAL OUT =       32293.2148

            IN - OUT =        9991.0000              IN - OUT =         122.4082

 PERCENT DISCREPANCY =           0.08     PERCENT DISCREPANCY =           0.38






         TIME SUMMARY AT END OF TIME STEP  191 IN STRESS PERIOD    1
                    SECONDS     MINUTES      HOURS       DAYS        YEARS
                    -----------------------------------------------------------
   TIME STEP LENGTH  86400.      1440.0      24.000      1.0000     2.73785E-03
 STRESS PERIOD TIME 1.65024E+07 2.75040E+05  4584.0      191.00     0.52293    
         TOTAL TIME 1.65024E+07 2.75040E+05  4584.0      191.00     0.52293    
1
 
 SOLVING FOR HEAD 
                                                   Max.-Head-Change                        Max.-Flux-Residual
  Residual-Control   Outer-Iter.   Inner-Iter.     Column Row Layer    Max.-Head-Change    Column Row Layer    Max.-Flux-Residual            L2-New               L2-Old           Solver-Max-Delh
          0                 1           2            40   21     1       0.4157928743E-01      29    3    1      -0.3104798419E+03      0.1888943373E+04      0.9471971311E+01      0.4157928743E-01
          0                 2           2            40   21     1      -0.3590945489E-02      29    3    1       0.3104520442E+02      0.1888614367E+03      0.1888943373E+04     -0.3590945489E-02

    ------------------------------------------------
       NWT REQUIRED            2 OUTER ITERATIONS 
       AND A TOTAL OF          4 INNER ITERATIONS.
    ------------------------------------------------

 OUTPUT CONTROL FOR STRESS PERIOD    1   TIME STEP  192
    SAVE HEAD FOR ALL LAYERS
    SAVE DRAWDOWN FOR ALL LAYERS
    SAVE BUDGET
    PRINT BUDGET
 UBDSV1 SAVING "         STORAGE" ON UNIT   9 AT TIME STEP192, STRESS PERIOD   1
 UBDSV2 SAVING "   CONSTANT HEAD" ON UNIT   9 AT TIME STEP192, STRESS PERIOD   1
 UBDSV1 SAVING "FLOW RIGHT FACE " ON UNIT   9 AT TIME STEP192, STRESS PERIOD   1
 UBDSV1 SAVING "FLOW FRONT FACE " ON UNIT   9 AT TIME STEP192, STRESS PERIOD   1
 UBDSV4 SAVING "   RIVER LEAKAGE" ON UNIT   9 AT TIME STEP192, STRESS PERIOD   1
 UBDSV3 SAVING "        RECHARGE" ON UNIT   9 AT TIME STEP192, STRESS PERIOD   1

 HEAD WILL BE SAVED ON UNIT 5037 AT END OF TIME STEP  192, STRESS PERIOD    1

 DRAWDOWN WILL BE SAVED ON UNIT   38 AT END OF TIME STEP  192, STRESS PERIOD    1
1
  VOLUMETRIC BUDGET FOR ENTIRE MODEL AT END OF TIME STEP  192, STRESS PERIOD   1
  ------------------------------------------------------------------------------

     CUMULATIVE VOLUMES      L**3       RATES FOR THIS TIME STEP      L**3/T
     ------------------                 ------------------------

           IN:                                      IN:
           ---                                      ---
             STORAGE =     8560274.0000               STORAGE =       26213.1543
       CONSTANT HEAD =           0.0000         CONSTANT HEAD =           0.0000
       RIVER LEAKAGE =     1128137.5000         RIVER LEAKAGE =        6040.1514
            RECHARGE =     3133288.5000              RECHARGE =         106.6643

            TOTAL IN =    12821700.0000              TOTAL IN =       32359.9688

          OUT:                                     OUT:
          ----                                     ----
             STORAGE =     5022407.5000               STORAGE =        1687.2056
       CONSTANT HEAD =           0.0000         CONSTANT HEAD =           0.0000
       RIVER LEAKAGE =     7789179.0000         RIVER LEAKAGE =       30550.5586
            RECHARGE =           0.0000              RECHARGE =           0.0000

           TOTAL OUT =    12811586.0000             TOTAL OUT =       32237.7637

            IN - OUT =       10114.0000              IN - OUT =         122.2051

 PERCENT DISCREPANCY =           0.08     PERCENT DISCREPANCY =           0.38






         TIME SUMMARY AT END OF TIME STEP  192 IN STRESS PERIOD    1
                    SECONDS     MINUTES      HOURS       DAYS        YEARS
                    -----------------------------------------------------------
   TIME STEP LENGTH  86400.      1440.0      24.000      1.0000     2.73785E-03
 STRESS PERIOD TIME 1.65888E+07 2.76480E+05  4608.0      192.00     0.52567    
         TOTAL TIME 1.65888E+07 2.76480E+05  4608.0      192.00     0.52567    
1
 
 SOLVING FOR HEAD 
                                                   Max.-Head-Change                        Max.-Flux-Residual
  Residual-Control   Outer-Iter.   Inner-Iter.     Column Row Layer    Max.-Head-Change    Column Row Layer    Max.-Flux-Residual            L2-New               L2-Old           Solver-Max-Delh
          0                 1           2            40   21     1       0.4066037491E-01      29    3    1      -0.3101861395E+03      0.1883168364E+04      0.9442821732E+01      0.4066037491E-01
          0                 2           2            40   21     1      -0.3511584049E-02      29    3    1       0.3101583592E+02      0.1882842071E+03      0.1883168364E+04     -0.3511584049E-02

    ------------------------------------------------
       NWT REQUIRED            2 OUTER ITERATIONS 
       AND A TOTAL OF          4 INNER ITERATIONS.
    ------------------------------------------------

 OUTPUT CONTROL FOR STRESS PERIOD    1   TIME STEP  193
    SAVE HEAD FOR ALL LAYERS
    SAVE DRAWDOWN FOR ALL LAYERS
    SAVE BUDGET
    PRINT BUDGET
 UBDSV1 SAVING "         STORAGE" ON UNIT   9 AT TIME STEP193, STRESS PERIOD   1
 UBDSV2 SAVING "   CONSTANT HEAD" ON UNIT   9 AT TIME STEP193, STRESS PERIOD   1
 UBDSV1 SAVING "FLOW RIGHT FACE " ON UNIT   9 AT TIME STEP193, STRESS PERIOD   1
 UBDSV1 SAVING "FLOW FRONT FACE " ON UNIT   9 AT TIME STEP193, STRESS PERIOD   1
 UBDSV4 SAVING "   RIVER LEAKAGE" ON UNIT   9 AT TIME STEP193, STRESS PERIOD   1
 UBDSV3 SAVING "        RECHARGE" ON UNIT   9 AT TIME STEP193, STRESS PERIOD   1

 HEAD WILL BE SAVED ON UNIT 5037 AT END OF TIME STEP  193, STRESS PERIOD    1

 DRAWDOWN WILL BE SAVED ON UNIT   38 AT END OF TIME STEP  193, STRESS PERIOD    1
1
  VOLUMETRIC BUDGET FOR ENTIRE MODEL AT END OF TIME STEP  193, STRESS PERIOD   1
  ------------------------------------------------------------------------------

     CUMULATIVE VOLUMES      L**3       RATES FOR THIS TIME STEP      L**3/T
     ------------------                 ------------------------

           IN:                                      IN:
           ---                                      ---
             STORAGE =     8586428.0000               STORAGE =       26154.1113
       CONSTANT HEAD =           0.0000         CONSTANT HEAD =           0.0000
       RIVER LEAKAGE =     1134183.3750         RIVER LEAKAGE =        6045.8892
            RECHARGE =     3133393.7500              RECHARGE =         105.3190

            TOTAL IN =    12854005.0000              TOTAL IN =       32305.3184

          OUT:                                     OUT:
          ----                                     ----
             STORAGE =     5024076.0000               STORAGE =        1668.7186
       CONSTANT HEAD =           0.0000         CONSTANT HEAD =           0.0000
       RIVER LEAKAGE =     7819693.5000         RIVER LEAKAGE =       30514.5977
            RECHARGE =           0.0000              RECHARGE =           0.0000

           TOTAL OUT =    12843770.0000             TOTAL OUT =       32183.3164

            IN - OUT =       10235.0000              IN - OUT =         122.0020

 PERCENT DISCREPANCY =           0.08     PERCENT DISCREPANCY =           0.38






         TIME SUMMARY AT END OF TIME STEP  193 IN STRESS PERIOD    1
                    SECONDS     MINUTES      HOURS       DAYS        YEARS
                    -----------------------------------------------------------
   TIME STEP LENGTH  86400.      1440.0      24.000      1.0000     2.73785E-03
 STRESS PERIOD TIME 1.66752E+07 2.77920E+05  4632.0      193.00     0.52841    
         TOTAL TIME 1.66752E+07 2.77920E+05  4632.0      193.00     0.52841    
1
 
 SOLVING FOR HEAD 
                                                   Max.-Head-Change                        Max.-Flux-Residual
  Residual-Control   Outer-Iter.   Inner-Iter.     Column Row Layer    Max.-Head-Change    Column Row Layer    Max.-Flux-Residual            L2-New               L2-Old           Solver-Max-Delh
          0                 1           2            40   21     1       0.3961313948E-01      29    3    1      -0.3098821235E+03      0.1877451337E+04      0.9413962308E+01      0.3961313948E-01
          0                 2           2            40   21     1      -0.3421140285E-02      29    3    1       0.3098543647E+02      0.1877127723E+03      0.1877451337E+04     -0.3421140285E-02

    ------------------------------------------------
       NWT REQUIRED            2 OUTER ITERATIONS 
       AND A TOTAL OF          4 INNER ITERATIONS.
    ------------------------------------------------

 OUTPUT CONTROL FOR STRESS PERIOD    1   TIME STEP  194
    SAVE HEAD FOR ALL LAYERS
    SAVE DRAWDOWN FOR ALL LAYERS
    SAVE BUDGET
    PRINT BUDGET
 UBDSV1 SAVING "         STORAGE" ON UNIT   9 AT TIME STEP194, STRESS PERIOD   1
 UBDSV2 SAVING "   CONSTANT HEAD" ON UNIT   9 AT TIME STEP194, STRESS PERIOD   1
 UBDSV1 SAVING "FLOW RIGHT FACE " ON UNIT   9 AT TIME STEP194, STRESS PERIOD   1
 UBDSV1 SAVING "FLOW FRONT FACE " ON UNIT   9 AT TIME STEP194, STRESS PERIOD   1
 UBDSV4 SAVING "   RIVER LEAKAGE" ON UNIT   9 AT TIME STEP194, STRESS PERIOD   1
 UBDSV3 SAVING "        RECHARGE" ON UNIT   9 AT TIME STEP194, STRESS PERIOD   1

 HEAD WILL BE SAVED ON UNIT 5037 AT END OF TIME STEP  194, STRESS PERIOD    1

 DRAWDOWN WILL BE SAVED ON UNIT   38 AT END OF TIME STEP  194, STRESS PERIOD    1
1
  VOLUMETRIC BUDGET FOR ENTIRE MODEL AT END OF TIME STEP  194, STRESS PERIOD   1
  ------------------------------------------------------------------------------

     CUMULATIVE VOLUMES      L**3       RATES FOR THIS TIME STEP      L**3/T
     ------------------                 ------------------------

           IN:                                      IN:
           ---                                      ---
             STORAGE =     8612524.0000               STORAGE =       26095.6875
       CONSTANT HEAD =           0.0000         CONSTANT HEAD =           0.0000
       RIVER LEAKAGE =     1140235.0000         RIVER LEAKAGE =        6051.5962
            RECHARGE =     3133497.7500              RECHARGE =         104.0014

            TOTAL IN =    12886257.0000              TOTAL IN =       32251.2852

          OUT:                                     OUT:
          ----                                     ----
             STORAGE =     5025727.0000               STORAGE =        1650.8168
       CONSTANT HEAD =           0.0000         CONSTANT HEAD =           0.0000
       RIVER LEAKAGE =     7850172.0000         RIVER LEAKAGE =       30478.6660
            RECHARGE =           0.0000              RECHARGE =           0.0000

           TOTAL OUT =    12875899.0000             TOTAL OUT =       32129.4824

            IN - OUT =       10358.0000              IN - OUT =         121.8027

 PERCENT DISCREPANCY =           0.08     PERCENT DISCREPANCY =           0.38






         TIME SUMMARY AT END OF TIME STEP  194 IN STRESS PERIOD    1
                    SECONDS     MINUTES      HOURS       DAYS        YEARS
                    -----------------------------------------------------------
   TIME STEP LENGTH  86400.      1440.0      24.000      1.0000     2.73785E-03
 STRESS PERIOD TIME 1.67616E+07 2.79360E+05  4656.0      194.00     0.53114    
         TOTAL TIME 1.67616E+07 2.79360E+05  4656.0      194.00     0.53114    
1
 
 SOLVING FOR HEAD 
                                                   Max.-Head-Change                        Max.-Flux-Residual
  Residual-Control   Outer-Iter.   Inner-Iter.     Column Row Layer    Max.-Head-Change    Column Row Layer    Max.-Flux-Residual            L2-New               L2-Old           Solver-Max-Delh
          0                 1           2            40   21     1       0.3849375526E-01      29    3    1      -0.3095683403E+03      0.1871778101E+04      0.9385392558E+01      0.3849375526E-01
          0                 2           2            40   21     1      -0.3324465588E-02      29    3    1       0.3095406054E+02      0.1871457092E+03      0.1871778101E+04     -0.3324465588E-02

    ------------------------------------------------
       NWT REQUIRED            2 OUTER ITERATIONS 
       AND A TOTAL OF          4 INNER ITERATIONS.
    ------------------------------------------------

 OUTPUT CONTROL FOR STRESS PERIOD    1   TIME STEP  195
    SAVE HEAD FOR ALL LAYERS
    SAVE DRAWDOWN FOR ALL LAYERS
    SAVE BUDGET
    PRINT BUDGET
 UBDSV1 SAVING "         STORAGE" ON UNIT   9 AT TIME STEP195, STRESS PERIOD   1
 UBDSV2 SAVING "   CONSTANT HEAD" ON UNIT   9 AT TIME STEP195, STRESS PERIOD   1
 UBDSV1 SAVING "FLOW RIGHT FACE " ON UNIT   9 AT TIME STEP195, STRESS PERIOD   1
 UBDSV1 SAVING "FLOW FRONT FACE " ON UNIT   9 AT TIME STEP195, STRESS PERIOD   1
 UBDSV4 SAVING "   RIVER LEAKAGE" ON UNIT   9 AT TIME STEP195, STRESS PERIOD   1
 UBDSV3 SAVING "        RECHARGE" ON UNIT   9 AT TIME STEP195, STRESS PERIOD   1

 HEAD WILL BE SAVED ON UNIT 5037 AT END OF TIME STEP  195, STRESS PERIOD    1

 DRAWDOWN WILL BE SAVED ON UNIT   38 AT END OF TIME STEP  195, STRESS PERIOD    1
1
  VOLUMETRIC BUDGET FOR ENTIRE MODEL AT END OF TIME STEP  195, STRESS PERIOD   1
  ------------------------------------------------------------------------------

     CUMULATIVE VOLUMES      L**3       RATES FOR THIS TIME STEP      L**3/T
     ------------------                 ------------------------

           IN:                                      IN:
           ---                                      ---
             STORAGE =     8638562.0000               STORAGE =       26037.8750
       CONSTANT HEAD =           0.0000         CONSTANT HEAD =           0.0000
       RIVER LEAKAGE =     1146292.2500         RIVER LEAKAGE =        6057.2759
            RECHARGE =     3133600.5000              RECHARGE =         102.7107

            TOTAL IN =    12918454.0000              TOTAL IN =       32197.8613

          OUT:                                     OUT:
          ----                                     ----
             STORAGE =     5027360.5000               STORAGE =        1633.4556
       CONSTANT HEAD =           0.0000         CONSTANT HEAD =           0.0000
       RIVER LEAKAGE =     7880615.0000         RIVER LEAKAGE =       30442.8047
            RECHARGE =           0.0000              RECHARGE =           0.0000

           TOTAL OUT =    12907976.0000             TOTAL OUT =       32076.2598

            IN - OUT =       10478.0000              IN - OUT =         121.6016

 PERCENT DISCREPANCY =           0.08     PERCENT DISCREPANCY =           0.38






         TIME SUMMARY AT END OF TIME STEP  195 IN STRESS PERIOD    1
                    SECONDS     MINUTES      HOURS       DAYS        YEARS
                    -----------------------------------------------------------
   TIME STEP LENGTH  86400.      1440.0      24.000      1.0000     2.73785E-03
 STRESS PERIOD TIME 1.68480E+07 2.80800E+05  4680.0      195.00     0.53388    
         TOTAL TIME 1.68480E+07 2.80800E+05  4680.0      195.00     0.53388    
1
 
 SOLVING FOR HEAD 
                                                   Max.-Head-Change                        Max.-Flux-Residual
  Residual-Control   Outer-Iter.   Inner-Iter.     Column Row Layer    Max.-Head-Change    Column Row Layer    Max.-Flux-Residual            L2-New               L2-Old           Solver-Max-Delh
          0                 1           2            40   21     1       0.3731468566E-01      29    3    1      -0.3092720765E+03      0.1866155342E+04      0.9357041359E+01      0.3731468566E-01
          0                 2           2            34    4     1       0.2008782292E+00      34    4    1       0.6300835640E+02      0.1967211312E+03      0.1866155342E+04      0.2008782292E+00
          0                 3           2            34    4     1      -0.1734857504E-01      34    4    1      -0.6300835734E+01      0.1124803467E+02      0.1967211312E+03     -0.1734857504E-01

    ------------------------------------------------
       NWT REQUIRED            3 OUTER ITERATIONS 
       AND A TOTAL OF          6 INNER ITERATIONS.
    ------------------------------------------------

 OUTPUT CONTROL FOR STRESS PERIOD    1   TIME STEP  196
    SAVE HEAD FOR ALL LAYERS
    SAVE DRAWDOWN FOR ALL LAYERS
    SAVE BUDGET
    PRINT BUDGET
 UBDSV1 SAVING "         STORAGE" ON UNIT   9 AT TIME STEP196, STRESS PERIOD   1
 UBDSV2 SAVING "   CONSTANT HEAD" ON UNIT   9 AT TIME STEP196, STRESS PERIOD   1
 UBDSV1 SAVING "FLOW RIGHT FACE " ON UNIT   9 AT TIME STEP196, STRESS PERIOD   1
 UBDSV1 SAVING "FLOW FRONT FACE " ON UNIT   9 AT TIME STEP196, STRESS PERIOD   1
 UBDSV4 SAVING "   RIVER LEAKAGE" ON UNIT   9 AT TIME STEP196, STRESS PERIOD   1
 UBDSV3 SAVING "        RECHARGE" ON UNIT   9 AT TIME STEP196, STRESS PERIOD   1

 HEAD WILL BE SAVED ON UNIT 5037 AT END OF TIME STEP  196, STRESS PERIOD    1

 DRAWDOWN WILL BE SAVED ON UNIT   38 AT END OF TIME STEP  196, STRESS PERIOD    1
1
  VOLUMETRIC BUDGET FOR ENTIRE MODEL AT END OF TIME STEP  196, STRESS PERIOD   1
  ------------------------------------------------------------------------------

     CUMULATIVE VOLUMES      L**3       RATES FOR THIS TIME STEP      L**3/T
     ------------------                 ------------------------

           IN:                                      IN:
           ---                                      ---
             STORAGE =     8664419.0000               STORAGE =       25857.2324
       CONSTANT HEAD =           0.0000         CONSTANT HEAD =           0.0000
       RIVER LEAKAGE =     1152355.1250         RIVER LEAKAGE =        6062.9058
            RECHARGE =     3133702.0000              RECHARGE =         101.4461

            TOTAL IN =    12950476.0000              TOTAL IN =       32021.5840

          OUT:                                     OUT:
          ----                                     ----
             STORAGE =     5028969.0000               STORAGE =        1608.5936
       CONSTANT HEAD =           0.0000         CONSTANT HEAD =           0.0000
       RIVER LEAKAGE =     7911022.0000         RIVER LEAKAGE =       30407.1895
            RECHARGE =           0.0000              RECHARGE =           0.0000

           TOTAL OUT =    12939991.0000             TOTAL OUT =       32015.7832

            IN - OUT =       10485.0000              IN - OUT =           5.8008

 PERCENT DISCREPANCY =           0.08     PERCENT DISCREPANCY =           0.02






         TIME SUMMARY AT END OF TIME STEP  196 IN STRESS PERIOD    1
                    SECONDS     MINUTES      HOURS       DAYS        YEARS
                    -----------------------------------------------------------
   TIME STEP LENGTH  86400.      1440.0      24.000      1.0000     2.73785E-03
 STRESS PERIOD TIME 1.69344E+07 2.82240E+05  4704.0      196.00     0.53662    
         TOTAL TIME 1.69344E+07 2.82240E+05  4704.0      196.00     0.53662    
1
 
 SOLVING FOR HEAD 
                                                   Max.-Head-Change                        Max.-Flux-Residual
  Residual-Control   Outer-Iter.   Inner-Iter.     Column Row Layer    Max.-Head-Change    Column Row Layer    Max.-Flux-Residual            L2-New               L2-Old           Solver-Max-Delh
          0                 1           2            34    4     1       0.2575793006E+00      29    3    1      -0.3089535250E+03      0.1860170787E+04      0.1124803467E+02      0.2575793006E+00
          0                 2           2            34    4     1      -0.2224548710E-01      29    3    1       0.3089258418E+02      0.1859854307E+03      0.1860170787E+04     -0.2224548710E-01

    ------------------------------------------------
       NWT REQUIRED            2 OUTER ITERATIONS 
       AND A TOTAL OF          4 INNER ITERATIONS.
    ------------------------------------------------

 OUTPUT CONTROL FOR STRESS PERIOD    1   TIME STEP  197
    SAVE HEAD FOR ALL LAYERS
    SAVE DRAWDOWN FOR ALL LAYERS
    SAVE BUDGET
    PRINT BUDGET
 UBDSV1 SAVING "         STORAGE" ON UNIT   9 AT TIME STEP197, STRESS PERIOD   1
 UBDSV2 SAVING "   CONSTANT HEAD" ON UNIT   9 AT TIME STEP197, STRESS PERIOD   1
 UBDSV1 SAVING "FLOW RIGHT FACE " ON UNIT   9 AT TIME STEP197, STRESS PERIOD   1
 UBDSV1 SAVING "FLOW FRONT FACE " ON UNIT   9 AT TIME STEP197, STRESS PERIOD   1
 UBDSV4 SAVING "   RIVER LEAKAGE" ON UNIT   9 AT TIME STEP197, STRESS PERIOD   1
 UBDSV3 SAVING "        RECHARGE" ON UNIT   9 AT TIME STEP197, STRESS PERIOD   1

 HEAD WILL BE SAVED ON UNIT 5037 AT END OF TIME STEP  197, STRESS PERIOD    1

 DRAWDOWN WILL BE SAVED ON UNIT   38 AT END OF TIME STEP  197, STRESS PERIOD    1
1
  VOLUMETRIC BUDGET FOR ENTIRE MODEL AT END OF TIME STEP  197, STRESS PERIOD   1
  ------------------------------------------------------------------------------

     CUMULATIVE VOLUMES      L**3       RATES FOR THIS TIME STEP      L**3/T
     ------------------                 ------------------------

           IN:                                      IN:
           ---                                      ---
             STORAGE =     8690341.0000               STORAGE =       25922.2969
       CONSTANT HEAD =           0.0000         CONSTANT HEAD =           0.0000
       RIVER LEAKAGE =     1158423.7500         RIVER LEAKAGE =        6068.5693
            RECHARGE =     3133802.2500              RECHARGE =         100.2069

            TOTAL IN =    12982567.0000              TOTAL IN =       32091.0742

          OUT:                                     OUT:
          ----                                     ----
             STORAGE =     5030567.5000               STORAGE =        1598.5321
       CONSTANT HEAD =           0.0000         CONSTANT HEAD =           0.0000
       RIVER LEAKAGE =     7941393.5000         RIVER LEAKAGE =       30371.3438
            RECHARGE =           0.0000              RECHARGE =           0.0000

           TOTAL OUT =    12971961.0000             TOTAL OUT =       31969.8750

            IN - OUT =       10606.0000              IN - OUT =         121.1992

 PERCENT DISCREPANCY =           0.08     PERCENT DISCREPANCY =           0.38






         TIME SUMMARY AT END OF TIME STEP  197 IN STRESS PERIOD    1
                    SECONDS     MINUTES      HOURS       DAYS        YEARS
                    -----------------------------------------------------------
   TIME STEP LENGTH  86400.      1440.0      24.000      1.0000     2.73785E-03
 STRESS PERIOD TIME 1.70208E+07 2.83680E+05  4728.0      197.00     0.53936    
         TOTAL TIME 1.70208E+07 2.83680E+05  4728.0      197.00     0.53936    
1
 
 SOLVING FOR HEAD 
                                                   Max.-Head-Change                        Max.-Flux-Residual
  Residual-Control   Outer-Iter.   Inner-Iter.     Column Row Layer    Max.-Head-Change    Column Row Layer    Max.-Flux-Residual            L2-New               L2-Old           Solver-Max-Delh
          0                 1           2            34    4     1       0.2184513140E+00      29    3    1      -0.3086525952E+03      0.1854313980E+04      0.9299030842E+01      0.2184513140E+00
          0                 2           2            34    4     1      -0.1886625214E-01      29    3    1       0.3086249345E+02      0.1853999945E+03      0.1854313980E+04     -0.1886625214E-01

    ------------------------------------------------
       NWT REQUIRED            2 OUTER ITERATIONS 
       AND A TOTAL OF          4 INNER ITERATIONS.
    ------------------------------------------------

 OUTPUT CONTROL FOR STRESS PERIOD    1   TIME STEP  198
    SAVE HEAD FOR ALL LAYERS
    SAVE DRAWDOWN FOR ALL LAYERS
    SAVE BUDGET
    PRINT BUDGET
 UBDSV1 SAVING "         STORAGE" ON UNIT   9 AT TIME STEP198, STRESS PERIOD   1
 UBDSV2 SAVING "   CONSTANT HEAD" ON UNIT   9 AT TIME STEP198, STRESS PERIOD   1
 UBDSV1 SAVING "FLOW RIGHT FACE " ON UNIT   9 AT TIME STEP198, STRESS PERIOD   1
 UBDSV1 SAVING "FLOW FRONT FACE " ON UNIT   9 AT TIME STEP198, STRESS PERIOD   1
 UBDSV4 SAVING "   RIVER LEAKAGE" ON UNIT   9 AT TIME STEP198, STRESS PERIOD   1
 UBDSV3 SAVING "        RECHARGE" ON UNIT   9 AT TIME STEP198, STRESS PERIOD   1

 HEAD WILL BE SAVED ON UNIT 5037 AT END OF TIME STEP  198, STRESS PERIOD    1

 DRAWDOWN WILL BE SAVED ON UNIT   38 AT END OF TIME STEP  198, STRESS PERIOD    1
1
  VOLUMETRIC BUDGET FOR ENTIRE MODEL AT END OF TIME STEP  198, STRESS PERIOD   1
  ------------------------------------------------------------------------------

     CUMULATIVE VOLUMES      L**3       RATES FOR THIS TIME STEP      L**3/T
     ------------------                 ------------------------

           IN:                                      IN:
           ---                                      ---
             STORAGE =     8716206.0000               STORAGE =       25865.1992
       CONSTANT HEAD =           0.0000         CONSTANT HEAD =           0.0000
       RIVER LEAKAGE =     1164497.8750         RIVER LEAKAGE =        6074.1792
            RECHARGE =     3133901.2500              RECHARGE =          98.9925

            TOTAL IN =    13014605.0000              TOTAL IN =       32038.3711

          OUT:                                     OUT:
          ----                                     ----
             STORAGE =     5032149.0000               STORAGE =        1581.5801
       CONSTANT HEAD =           0.0000         CONSTANT HEAD =           0.0000
       RIVER LEAKAGE =     7971729.5000         RIVER LEAKAGE =       30335.7930
            RECHARGE =           0.0000              RECHARGE =           0.0000

           TOTAL OUT =    13003878.0000             TOTAL OUT =       31917.3730

            IN - OUT =       10727.0000              IN - OUT =         120.9980

 PERCENT DISCREPANCY =           0.08     PERCENT DISCREPANCY =           0.38






         TIME SUMMARY AT END OF TIME STEP  198 IN STRESS PERIOD    1
                    SECONDS     MINUTES      HOURS       DAYS        YEARS
                    -----------------------------------------------------------
   TIME STEP LENGTH  86400.      1440.0      24.000      1.0000     2.73785E-03
 STRESS PERIOD TIME 1.71072E+07 2.85120E+05  4752.0      198.00     0.54209    
         TOTAL TIME 1.71072E+07 2.85120E+05  4752.0      198.00     0.54209    
1
 
 SOLVING FOR HEAD 
                                                   Max.-Head-Change                        Max.-Flux-Residual
  Residual-Control   Outer-Iter.   Inner-Iter.     Column Row Layer    Max.-Head-Change    Column Row Layer    Max.-Flux-Residual            L2-New               L2-Old           Solver-Max-Delh
          0                 1           2            34    4     1       0.1861201306E+00      29    3    1      -0.3083282084E+03      0.1848662738E+04      0.9269760867E+01      0.1861201306E+00
          0                 2           2            34    4     1      -0.1607401382E-01      29    3    1       0.3083005700E+02      0.1848351131E+03      0.1848662738E+04     -0.1607401382E-01

    ------------------------------------------------
       NWT REQUIRED            2 OUTER ITERATIONS 
       AND A TOTAL OF          4 INNER ITERATIONS.
    ------------------------------------------------

 OUTPUT CONTROL FOR STRESS PERIOD    1   TIME STEP  199
    SAVE HEAD FOR ALL LAYERS
    SAVE DRAWDOWN FOR ALL LAYERS
    SAVE BUDGET
    PRINT BUDGET
 UBDSV1 SAVING "         STORAGE" ON UNIT   9 AT TIME STEP199, STRESS PERIOD   1
 UBDSV2 SAVING "   CONSTANT HEAD" ON UNIT   9 AT TIME STEP199, STRESS PERIOD   1
 UBDSV1 SAVING "FLOW RIGHT FACE " ON UNIT   9 AT TIME STEP199, STRESS PERIOD   1
 UBDSV1 SAVING "FLOW FRONT FACE " ON UNIT   9 AT TIME STEP199, STRESS PERIOD   1
 UBDSV4 SAVING "   RIVER LEAKAGE" ON UNIT   9 AT TIME STEP199, STRESS PERIOD   1
 UBDSV3 SAVING "        RECHARGE" ON UNIT   9 AT TIME STEP199, STRESS PERIOD   1

 HEAD WILL BE SAVED ON UNIT 5037 AT END OF TIME STEP  199, STRESS PERIOD    1

 DRAWDOWN WILL BE SAVED ON UNIT   38 AT END OF TIME STEP  199, STRESS PERIOD    1
1
  VOLUMETRIC BUDGET FOR ENTIRE MODEL AT END OF TIME STEP  199, STRESS PERIOD   1
  ------------------------------------------------------------------------------

     CUMULATIVE VOLUMES      L**3       RATES FOR THIS TIME STEP      L**3/T
     ------------------                 ------------------------

           IN:                                      IN:
           ---                                      ---
             STORAGE =     8742015.0000               STORAGE =       25808.8027
       CONSTANT HEAD =           0.0000         CONSTANT HEAD =           0.0000
       RIVER LEAKAGE =     1170577.6250         RIVER LEAKAGE =        6079.7524
            RECHARGE =     3133999.0000              RECHARGE =          97.8021

            TOTAL IN =    13046592.0000              TOTAL IN =       31986.3574

          OUT:                                     OUT:
          ----                                     ----
             STORAGE =     5033714.0000               STORAGE =        1565.1820
       CONSTANT HEAD =           0.0000         CONSTANT HEAD =           0.0000
       RIVER LEAKAGE =     8002030.0000         RIVER LEAKAGE =       30300.3789
            RECHARGE =           0.0000              RECHARGE =           0.0000

           TOTAL OUT =    13035744.0000             TOTAL OUT =       31865.5605

            IN - OUT =       10848.0000              IN - OUT =         120.7969

 PERCENT DISCREPANCY =           0.08     PERCENT DISCREPANCY =           0.38






         TIME SUMMARY AT END OF TIME STEP  199 IN STRESS PERIOD    1
                    SECONDS     MINUTES      HOURS       DAYS        YEARS
                    -----------------------------------------------------------
   TIME STEP LENGTH  86400.      1440.0      24.000      1.0000     2.73785E-03
 STRESS PERIOD TIME 1.71936E+07 2.86560E+05  4776.0      199.00     0.54483    
         TOTAL TIME 1.71936E+07 2.86560E+05  4776.0      199.00     0.54483    
1
 
 SOLVING FOR HEAD 
                                                   Max.-Head-Change                        Max.-Flux-Residual
  Residual-Control   Outer-Iter.   Inner-Iter.     Column Row Layer    Max.-Head-Change    Column Row Layer    Max.-Flux-Residual            L2-New               L2-Old           Solver-Max-Delh
          0                 1           2            34    4     1       0.1592369099E+00      29    3    1      -0.3080066009E+03      0.1843150598E+04      0.9241518624E+01      0.1592369099E+00
          0                 2           2             5    9     1       0.8934010773E-01      29    3    1       0.3079789894E+02      0.1859206869E+03      0.1843150598E+04      0.8934010773E-01

    ------------------------------------------------
       NWT REQUIRED            2 OUTER ITERATIONS 
       AND A TOTAL OF          4 INNER ITERATIONS.
    ------------------------------------------------

 OUTPUT CONTROL FOR STRESS PERIOD    1   TIME STEP  200
    SAVE HEAD FOR ALL LAYERS
    SAVE DRAWDOWN FOR ALL LAYERS
    SAVE BUDGET
    PRINT BUDGET
 UBDSV1 SAVING "         STORAGE" ON UNIT   9 AT TIME STEP200, STRESS PERIOD   1
 UBDSV2 SAVING "   CONSTANT HEAD" ON UNIT   9 AT TIME STEP200, STRESS PERIOD   1
 UBDSV1 SAVING "FLOW RIGHT FACE " ON UNIT   9 AT TIME STEP200, STRESS PERIOD   1
 UBDSV1 SAVING "FLOW FRONT FACE " ON UNIT   9 AT TIME STEP200, STRESS PERIOD   1
 UBDSV4 SAVING "   RIVER LEAKAGE" ON UNIT   9 AT TIME STEP200, STRESS PERIOD   1
 UBDSV3 SAVING "        RECHARGE" ON UNIT   9 AT TIME STEP200, STRESS PERIOD   1

 HEAD WILL BE SAVED ON UNIT 5037 AT END OF TIME STEP  200, STRESS PERIOD    1

 DRAWDOWN WILL BE SAVED ON UNIT   38 AT END OF TIME STEP  200, STRESS PERIOD    1
1
  VOLUMETRIC BUDGET FOR ENTIRE MODEL AT END OF TIME STEP  200, STRESS PERIOD   1
  ------------------------------------------------------------------------------

     CUMULATIVE VOLUMES      L**3       RATES FOR THIS TIME STEP      L**3/T
     ------------------                 ------------------------

           IN:                                      IN:
           ---                                      ---
             STORAGE =     8767767.0000               STORAGE =       25752.4258
       CONSTANT HEAD =           0.0000         CONSTANT HEAD =           0.0000
       RIVER LEAKAGE =     1176662.8750         RIVER LEAKAGE =        6085.3105
            RECHARGE =     3134095.7500              RECHARGE =          96.6351

            TOTAL IN =    13078526.0000              TOTAL IN =       31934.3711

          OUT:                                     OUT:
          ----                                     ----
             STORAGE =     5035264.5000               STORAGE =        1550.2794
       CONSTANT HEAD =           0.0000         CONSTANT HEAD =           0.0000
       RIVER LEAKAGE =     8032295.0000         RIVER LEAKAGE =       30265.0898
            RECHARGE =           0.0000              RECHARGE =           0.0000

           TOTAL OUT =    13067560.0000             TOTAL OUT =       31815.3691

            IN - OUT =       10966.0000              IN - OUT =         119.0020

 PERCENT DISCREPANCY =           0.08     PERCENT DISCREPANCY =           0.37






         TIME SUMMARY AT END OF TIME STEP  200 IN STRESS PERIOD    1
                    SECONDS     MINUTES      HOURS       DAYS        YEARS
                    -----------------------------------------------------------
   TIME STEP LENGTH  86400.      1440.0      24.000      1.0000     2.73785E-03
 STRESS PERIOD TIME 1.72800E+07 2.88000E+05  4800.0      200.00     0.54757    
         TOTAL TIME 1.72800E+07 2.88000E+05  4800.0      200.00     0.54757    
1
 
 SOLVING FOR HEAD 
                                                   Max.-Head-Change                        Max.-Flux-Residual
  Residual-Control   Outer-Iter.   Inner-Iter.     Column Row Layer    Max.-Head-Change    Column Row Layer    Max.-Flux-Residual            L2-New               L2-Old           Solver-Max-Delh
          0                 1           2             5    9     1       0.1559803725E+00      29    3    1      -0.3076888697E+03      0.1837644125E+04      0.9543210813E+01      0.1559803725E+00
          0                 2           2             5    9     1      -0.1347211768E-01      29    3    1       0.3076612795E+02      0.1837337256E+03      0.1837644125E+04     -0.1347211768E-01

    ------------------------------------------------
       NWT REQUIRED            2 OUTER ITERATIONS 
       AND A TOTAL OF          4 INNER ITERATIONS.
    ------------------------------------------------

 OUTPUT CONTROL FOR STRESS PERIOD    1   TIME STEP  201
    SAVE HEAD FOR ALL LAYERS
    SAVE DRAWDOWN FOR ALL LAYERS
    SAVE BUDGET
    PRINT BUDGET
 UBDSV1 SAVING "         STORAGE" ON UNIT   9 AT TIME STEP201, STRESS PERIOD   1
 UBDSV2 SAVING "   CONSTANT HEAD" ON UNIT   9 AT TIME STEP201, STRESS PERIOD   1
 UBDSV1 SAVING "FLOW RIGHT FACE " ON UNIT   9 AT TIME STEP201, STRESS PERIOD   1
 UBDSV1 SAVING "FLOW FRONT FACE " ON UNIT   9 AT TIME STEP201, STRESS PERIOD   1
 UBDSV4 SAVING "   RIVER LEAKAGE" ON UNIT   9 AT TIME STEP201, STRESS PERIOD   1
 UBDSV3 SAVING "        RECHARGE" ON UNIT   9 AT TIME STEP201, STRESS PERIOD   1

 HEAD WILL BE SAVED ON UNIT 5037 AT END OF TIME STEP  201, STRESS PERIOD    1

 DRAWDOWN WILL BE SAVED ON UNIT   38 AT END OF TIME STEP  201, STRESS PERIOD    1
1
  VOLUMETRIC BUDGET FOR ENTIRE MODEL AT END OF TIME STEP  201, STRESS PERIOD   1
  ------------------------------------------------------------------------------

     CUMULATIVE VOLUMES      L**3       RATES FOR THIS TIME STEP      L**3/T
     ------------------                 ------------------------

           IN:                                      IN:
           ---                                      ---
             STORAGE =     8793463.0000               STORAGE =       25695.6758
       CONSTANT HEAD =           0.0000         CONSTANT HEAD =           0.0000
       RIVER LEAKAGE =     1182753.7500         RIVER LEAKAGE =        6090.8403
            RECHARGE =     3134191.2500              RECHARGE =          95.4909

            TOTAL IN =    13110408.0000              TOTAL IN =       31882.0059

          OUT:                                     OUT:
          ----                                     ----
             STORAGE =     5036796.0000               STORAGE =        1531.6653
       CONSTANT HEAD =           0.0000         CONSTANT HEAD =           0.0000
       RIVER LEAKAGE =     8062525.0000         RIVER LEAKAGE =       30229.9414
            RECHARGE =           0.0000              RECHARGE =           0.0000

           TOTAL OUT =    13099321.0000             TOTAL OUT =       31761.6074

            IN - OUT =       11087.0000              IN - OUT =         120.3984

 PERCENT DISCREPANCY =           0.08     PERCENT DISCREPANCY =           0.38






         TIME SUMMARY AT END OF TIME STEP  201 IN STRESS PERIOD    1
                    SECONDS     MINUTES      HOURS       DAYS        YEARS
                    -----------------------------------------------------------
   TIME STEP LENGTH  86400.      1440.0      24.000      1.0000     2.73785E-03
 STRESS PERIOD TIME 1.73664E+07 2.89440E+05  4824.0      201.00     0.55031    
         TOTAL TIME 1.73664E+07 2.89440E+05  4824.0      201.00     0.55031    
1
 
 SOLVING FOR HEAD 
                                                   Max.-Head-Change                        Max.-Flux-Residual
  Residual-Control   Outer-Iter.   Inner-Iter.     Column Row Layer    Max.-Head-Change    Column Row Layer    Max.-Flux-Residual            L2-New               L2-Old           Solver-Max-Delh
          0                 1           2            34    4     1       0.1178888226E+00      29    3    1      -0.3073600835E+03      0.1832238526E+04      0.9186452807E+01      0.1178888226E+00
          0                 2           2            34    4     1      -0.1018131058E-01      29    3    1       0.3073325175E+02      0.1831933974E+03      0.1832238526E+04     -0.1018131058E-01

    ------------------------------------------------
       NWT REQUIRED            2 OUTER ITERATIONS 
       AND A TOTAL OF          4 INNER ITERATIONS.
    ------------------------------------------------

 OUTPUT CONTROL FOR STRESS PERIOD    1   TIME STEP  202
    SAVE HEAD FOR ALL LAYERS
    SAVE DRAWDOWN FOR ALL LAYERS
    SAVE BUDGET
    PRINT BUDGET
 UBDSV1 SAVING "         STORAGE" ON UNIT   9 AT TIME STEP202, STRESS PERIOD   1
 UBDSV2 SAVING "   CONSTANT HEAD" ON UNIT   9 AT TIME STEP202, STRESS PERIOD   1
 UBDSV1 SAVING "FLOW RIGHT FACE " ON UNIT   9 AT TIME STEP202, STRESS PERIOD   1
 UBDSV1 SAVING "FLOW FRONT FACE " ON UNIT   9 AT TIME STEP202, STRESS PERIOD   1
 UBDSV4 SAVING "   RIVER LEAKAGE" ON UNIT   9 AT TIME STEP202, STRESS PERIOD   1
 UBDSV3 SAVING "        RECHARGE" ON UNIT   9 AT TIME STEP202, STRESS PERIOD   1

 HEAD WILL BE SAVED ON UNIT 5037 AT END OF TIME STEP  202, STRESS PERIOD    1

 DRAWDOWN WILL BE SAVED ON UNIT   38 AT END OF TIME STEP  202, STRESS PERIOD    1
1
  VOLUMETRIC BUDGET FOR ENTIRE MODEL AT END OF TIME STEP  202, STRESS PERIOD   1
  ------------------------------------------------------------------------------

     CUMULATIVE VOLUMES      L**3       RATES FOR THIS TIME STEP      L**3/T
     ------------------                 ------------------------

           IN:                                      IN:
           ---                                      ---
             STORAGE =     8819102.0000               STORAGE =       25639.0703
       CONSTANT HEAD =           0.0000         CONSTANT HEAD =           0.0000
       RIVER LEAKAGE =     1188850.1250         RIVER LEAKAGE =        6096.3452
            RECHARGE =     3134285.5000              RECHARGE =          94.3689

            TOTAL IN =    13142238.0000              TOTAL IN =       31829.7852

          OUT:                                     OUT:
          ----                                     ----
             STORAGE =     5038310.5000               STORAGE =        1514.6343
       CONSTANT HEAD =           0.0000         CONSTANT HEAD =           0.0000
       RIVER LEAKAGE =     8092720.0000         RIVER LEAKAGE =       30194.9473
            RECHARGE =           0.0000              RECHARGE =           0.0000

           TOTAL OUT =    13131030.0000             TOTAL OUT =       31709.5820

            IN - OUT =       11208.0000              IN - OUT =         120.2031

 PERCENT DISCREPANCY =           0.09     PERCENT DISCREPANCY =           0.38






         TIME SUMMARY AT END OF TIME STEP  202 IN STRESS PERIOD    1
                    SECONDS     MINUTES      HOURS       DAYS        YEARS
                    -----------------------------------------------------------
   TIME STEP LENGTH  86400.      1440.0      24.000      1.0000     2.73785E-03
 STRESS PERIOD TIME 1.74528E+07 2.90880E+05  4848.0      202.00     0.55305    
         TOTAL TIME 1.74528E+07 2.90880E+05  4848.0      202.00     0.55305    
1
 
 SOLVING FOR HEAD 
                                                   Max.-Head-Change                        Max.-Flux-Residual
  Residual-Control   Outer-Iter.   Inner-Iter.     Column Row Layer    Max.-Head-Change    Column Row Layer    Max.-Flux-Residual            L2-New               L2-Old           Solver-Max-Delh
          0                 1           2            34    4     1       0.1019695900E+00      29    3    1      -0.3070340763E+03      0.1826978627E+04      0.9159438141E+01      0.1019695900E+00
          0                 2           2            34    4     1      -0.8806467925E-02      29    3    1       0.3070065302E+02      0.1826676389E+03      0.1826978627E+04     -0.8806467925E-02

    ------------------------------------------------
       NWT REQUIRED            2 OUTER ITERATIONS 
       AND A TOTAL OF          4 INNER ITERATIONS.
    ------------------------------------------------

 OUTPUT CONTROL FOR STRESS PERIOD    1   TIME STEP  203
    SAVE HEAD FOR ALL LAYERS
    SAVE DRAWDOWN FOR ALL LAYERS
    SAVE BUDGET
    PRINT BUDGET
 UBDSV1 SAVING "         STORAGE" ON UNIT   9 AT TIME STEP203, STRESS PERIOD   1
 UBDSV2 SAVING "   CONSTANT HEAD" ON UNIT   9 AT TIME STEP203, STRESS PERIOD   1
 UBDSV1 SAVING "FLOW RIGHT FACE " ON UNIT   9 AT TIME STEP203, STRESS PERIOD   1
 UBDSV1 SAVING "FLOW FRONT FACE " ON UNIT   9 AT TIME STEP203, STRESS PERIOD   1
 UBDSV4 SAVING "   RIVER LEAKAGE" ON UNIT   9 AT TIME STEP203, STRESS PERIOD   1
 UBDSV3 SAVING "        RECHARGE" ON UNIT   9 AT TIME STEP203, STRESS PERIOD   1

 HEAD WILL BE SAVED ON UNIT 5037 AT END OF TIME STEP  203, STRESS PERIOD    1

 DRAWDOWN WILL BE SAVED ON UNIT   38 AT END OF TIME STEP  203, STRESS PERIOD    1
1
  VOLUMETRIC BUDGET FOR ENTIRE MODEL AT END OF TIME STEP  203, STRESS PERIOD   1
  ------------------------------------------------------------------------------

     CUMULATIVE VOLUMES      L**3       RATES FOR THIS TIME STEP      L**3/T
     ------------------                 ------------------------

           IN:                                      IN:
           ---                                      ---
             STORAGE =     8844685.0000               STORAGE =       25582.7793
       CONSTANT HEAD =           0.0000         CONSTANT HEAD =           0.0000
       RIVER LEAKAGE =     1194952.0000         RIVER LEAKAGE =        6101.8164
            RECHARGE =     3134378.7500              RECHARGE =          93.2685

            TOTAL IN =    13174016.0000              TOTAL IN =       31777.8633

          OUT:                                     OUT:
          ----                                     ----
             STORAGE =     5039808.5000               STORAGE =        1497.7684
       CONSTANT HEAD =           0.0000         CONSTANT HEAD =           0.0000
       RIVER LEAKAGE =     8122880.0000         RIVER LEAKAGE =       30160.0898
            RECHARGE =           0.0000              RECHARGE =           0.0000

           TOTAL OUT =    13162688.0000             TOTAL OUT =       31657.8574

            IN - OUT =       11328.0000              IN - OUT =         120.0059

 PERCENT DISCREPANCY =           0.09     PERCENT DISCREPANCY =           0.38






         TIME SUMMARY AT END OF TIME STEP  203 IN STRESS PERIOD    1
                    SECONDS     MINUTES      HOURS       DAYS        YEARS
                    -----------------------------------------------------------
   TIME STEP LENGTH  86400.      1440.0      24.000      1.0000     2.73785E-03
 STRESS PERIOD TIME 1.75392E+07 2.92320E+05  4872.0      203.00     0.55578    
         TOTAL TIME 1.75392E+07 2.92320E+05  4872.0      203.00     0.55578    
1
 
 SOLVING FOR HEAD 
                                                   Max.-Head-Change                        Max.-Flux-Residual
  Residual-Control   Outer-Iter.   Inner-Iter.     Column Row Layer    Max.-Head-Change    Column Row Layer    Max.-Flux-Residual            L2-New               L2-Old           Solver-Max-Delh
          0                 1           2            34    4     1       0.8847992579E-01      29    3    1      -0.3066961981E+03      0.1821794535E+04      0.9133151950E+01      0.8847992579E-01
          0                 2           2            24   19     1       0.2977685767E+00      24   19    1       0.1112234192E+03      0.2129777641E+03      0.1821794535E+04      0.2977685767E+00
          0                 3           2            24   19     1      -0.2571637444E-01      24   19    1      -0.1112234208E+02      0.1435248959E+02      0.2129777641E+03     -0.2571637444E-01

    ------------------------------------------------
       NWT REQUIRED            3 OUTER ITERATIONS 
       AND A TOTAL OF          6 INNER ITERATIONS.
    ------------------------------------------------

 OUTPUT CONTROL FOR STRESS PERIOD    1   TIME STEP  204
    SAVE HEAD FOR ALL LAYERS
    SAVE DRAWDOWN FOR ALL LAYERS
    SAVE BUDGET
    PRINT BUDGET
 UBDSV1 SAVING "         STORAGE" ON UNIT   9 AT TIME STEP204, STRESS PERIOD   1
 UBDSV2 SAVING "   CONSTANT HEAD" ON UNIT   9 AT TIME STEP204, STRESS PERIOD   1
 UBDSV1 SAVING "FLOW RIGHT FACE " ON UNIT   9 AT TIME STEP204, STRESS PERIOD   1
 UBDSV1 SAVING "FLOW FRONT FACE " ON UNIT   9 AT TIME STEP204, STRESS PERIOD   1
 UBDSV4 SAVING "   RIVER LEAKAGE" ON UNIT   9 AT TIME STEP204, STRESS PERIOD   1
 UBDSV3 SAVING "        RECHARGE" ON UNIT   9 AT TIME STEP204, STRESS PERIOD   1

 HEAD WILL BE SAVED ON UNIT 5037 AT END OF TIME STEP  204, STRESS PERIOD    1

 DRAWDOWN WILL BE SAVED ON UNIT   38 AT END OF TIME STEP  204, STRESS PERIOD    1
1
  VOLUMETRIC BUDGET FOR ENTIRE MODEL AT END OF TIME STEP  204, STRESS PERIOD   1
  ------------------------------------------------------------------------------

     CUMULATIVE VOLUMES      L**3       RATES FOR THIS TIME STEP      L**3/T
     ------------------                 ------------------------

           IN:                                      IN:
           ---                                      ---
             STORAGE =     8870091.0000               STORAGE =       25406.2832
       CONSTANT HEAD =           0.0000         CONSTANT HEAD =           0.0000
       RIVER LEAKAGE =     1201059.2500         RIVER LEAKAGE =        6107.2036
            RECHARGE =     3134471.0000              RECHARGE =          92.1891

            TOTAL IN =    13205621.0000              TOTAL IN =       31605.6758

          OUT:                                     OUT:
          ----                                     ----
             STORAGE =     5041283.0000               STORAGE =        1474.6121
       CONSTANT HEAD =           0.0000         CONSTANT HEAD =           0.0000
       RIVER LEAKAGE =     8153005.5000         RIVER LEAKAGE =       30125.5586
            RECHARGE =           0.0000              RECHARGE =           0.0000

           TOTAL OUT =    13194288.0000             TOTAL OUT =       31600.1699

            IN - OUT =       11333.0000              IN - OUT =           5.5059

 PERCENT DISCREPANCY =           0.09     PERCENT DISCREPANCY =           0.02






         TIME SUMMARY AT END OF TIME STEP  204 IN STRESS PERIOD    1
                    SECONDS     MINUTES      HOURS       DAYS        YEARS
                    -----------------------------------------------------------
   TIME STEP LENGTH  86400.      1440.0      24.000      1.0000     2.73785E-03
 STRESS PERIOD TIME 1.76256E+07 2.93760E+05  4896.0      204.00     0.55852    
         TOTAL TIME 1.76256E+07 2.93760E+05  4896.0      204.00     0.55852    
1
 
 SOLVING FOR HEAD 
                                                   Max.-Head-Change                        Max.-Flux-Residual
  Residual-Control   Outer-Iter.   Inner-Iter.     Column Row Layer    Max.-Head-Change    Column Row Layer    Max.-Flux-Residual            L2-New               L2-Old           Solver-Max-Delh
          0                 1           2            24   19     1       0.2880471123E+00      29    3    1      -0.3063614424E+03      0.1814679525E+04      0.1435248959E+02      0.2880471123E+00
          0                 2           2            24   19     1      -0.2487687400E-01      29    3    1       0.3063339470E+02      0.1814379386E+03      0.1814679525E+04     -0.2487687400E-01

    ------------------------------------------------
       NWT REQUIRED            2 OUTER ITERATIONS 
       AND A TOTAL OF          4 INNER ITERATIONS.
    ------------------------------------------------

 OUTPUT CONTROL FOR STRESS PERIOD    1   TIME STEP  205
    SAVE HEAD FOR ALL LAYERS
    SAVE DRAWDOWN FOR ALL LAYERS
    SAVE BUDGET
    PRINT BUDGET
 UBDSV1 SAVING "         STORAGE" ON UNIT   9 AT TIME STEP205, STRESS PERIOD   1
 UBDSV2 SAVING "   CONSTANT HEAD" ON UNIT   9 AT TIME STEP205, STRESS PERIOD   1
 UBDSV1 SAVING "FLOW RIGHT FACE " ON UNIT   9 AT TIME STEP205, STRESS PERIOD   1
 UBDSV1 SAVING "FLOW FRONT FACE " ON UNIT   9 AT TIME STEP205, STRESS PERIOD   1
 UBDSV4 SAVING "   RIVER LEAKAGE" ON UNIT   9 AT TIME STEP205, STRESS PERIOD   1
 UBDSV3 SAVING "        RECHARGE" ON UNIT   9 AT TIME STEP205, STRESS PERIOD   1

 HEAD WILL BE SAVED ON UNIT 5037 AT END OF TIME STEP  205, STRESS PERIOD    1

 DRAWDOWN WILL BE SAVED ON UNIT   38 AT END OF TIME STEP  205, STRESS PERIOD    1
1
  VOLUMETRIC BUDGET FOR ENTIRE MODEL AT END OF TIME STEP  205, STRESS PERIOD   1
  ------------------------------------------------------------------------------

     CUMULATIVE VOLUMES      L**3       RATES FOR THIS TIME STEP      L**3/T
     ------------------                 ------------------------

           IN:                                      IN:
           ---                                      ---
             STORAGE =     8895563.0000               STORAGE =       25471.6113
       CONSTANT HEAD =           0.0000         CONSTANT HEAD =           0.0000
       RIVER LEAKAGE =     1207171.8750         RIVER LEAKAGE =        6112.5894
            RECHARGE =     3134562.2500              RECHARGE =          91.1303

            TOTAL IN =    13237297.0000              TOTAL IN =       31675.3320

          OUT:                                     OUT:
          ----                                     ----
             STORAGE =     5042748.0000               STORAGE =        1464.7529
       CONSTANT HEAD =           0.0000         CONSTANT HEAD =           0.0000
       RIVER LEAKAGE =     8183096.5000         RIVER LEAKAGE =       30090.9629
            RECHARGE =           0.0000              RECHARGE =           0.0000

           TOTAL OUT =    13225844.0000             TOTAL OUT =       31555.7148

            IN - OUT =       11453.0000              IN - OUT =         119.6172

 PERCENT DISCREPANCY =           0.09     PERCENT DISCREPANCY =           0.38






         TIME SUMMARY AT END OF TIME STEP  205 IN STRESS PERIOD    1
                    SECONDS     MINUTES      HOURS       DAYS        YEARS
                    -----------------------------------------------------------
   TIME STEP LENGTH  86400.      1440.0      24.000      1.0000     2.73785E-03
 STRESS PERIOD TIME 1.77120E+07 2.95200E+05  4920.0      205.00     0.56126    
         TOTAL TIME 1.77120E+07 2.95200E+05  4920.0      205.00     0.56126    
1
 
 SOLVING FOR HEAD 
                                                   Max.-Head-Change                        Max.-Flux-Residual
  Residual-Control   Outer-Iter.   Inner-Iter.     Column Row Layer    Max.-Head-Change    Column Row Layer    Max.-Flux-Residual            L2-New               L2-Old           Solver-Max-Delh
          0                 1           2            24   19     1       0.2222931686E+00      29    3    1      -0.3060152983E+03      0.1808600526E+04      0.9071668813E+01      0.2222931686E+00
          0                 2           2            24   19     1      -0.1919813501E-01      29    3    1       0.3059878297E+02      0.1808302845E+03      0.1808600526E+04     -0.1919813501E-01

    ------------------------------------------------
       NWT REQUIRED            2 OUTER ITERATIONS 
       AND A TOTAL OF          4 INNER ITERATIONS.
    ------------------------------------------------

 OUTPUT CONTROL FOR STRESS PERIOD    1   TIME STEP  206
    SAVE HEAD FOR ALL LAYERS
    SAVE DRAWDOWN FOR ALL LAYERS
    SAVE BUDGET
    PRINT BUDGET
 UBDSV1 SAVING "         STORAGE" ON UNIT   9 AT TIME STEP206, STRESS PERIOD   1
 UBDSV2 SAVING "   CONSTANT HEAD" ON UNIT   9 AT TIME STEP206, STRESS PERIOD   1
 UBDSV1 SAVING "FLOW RIGHT FACE " ON UNIT   9 AT TIME STEP206, STRESS PERIOD   1
 UBDSV1 SAVING "FLOW FRONT FACE " ON UNIT   9 AT TIME STEP206, STRESS PERIOD   1
 UBDSV4 SAVING "   RIVER LEAKAGE" ON UNIT   9 AT TIME STEP206, STRESS PERIOD   1
 UBDSV3 SAVING "        RECHARGE" ON UNIT   9 AT TIME STEP206, STRESS PERIOD   1

 HEAD WILL BE SAVED ON UNIT 5037 AT END OF TIME STEP  206, STRESS PERIOD    1

 DRAWDOWN WILL BE SAVED ON UNIT   38 AT END OF TIME STEP  206, STRESS PERIOD    1
1
  VOLUMETRIC BUDGET FOR ENTIRE MODEL AT END OF TIME STEP  206, STRESS PERIOD   1
  ------------------------------------------------------------------------------

     CUMULATIVE VOLUMES      L**3       RATES FOR THIS TIME STEP      L**3/T
     ------------------                 ------------------------

           IN:                                      IN:
           ---                                      ---
             STORAGE =     8920980.0000               STORAGE =       25417.1367
       CONSTANT HEAD =           0.0000         CONSTANT HEAD =           0.0000
       RIVER LEAKAGE =     1213289.8750         RIVER LEAKAGE =        6118.0410
            RECHARGE =     3134652.2500              RECHARGE =          90.0915

            TOTAL IN =    13268922.0000              TOTAL IN =       31625.2695

          OUT:                                     OUT:
          ----                                     ----
             STORAGE =     5044197.0000               STORAGE =        1449.0369
       CONSTANT HEAD =           0.0000         CONSTANT HEAD =           0.0000
       RIVER LEAKAGE =     8213153.5000         RIVER LEAKAGE =       30056.8105
            RECHARGE =           0.0000              RECHARGE =           0.0000

           TOTAL OUT =    13257350.0000             TOTAL OUT =       31505.8477

            IN - OUT =       11572.0000              IN - OUT =         119.4219

 PERCENT DISCREPANCY =           0.09     PERCENT DISCREPANCY =           0.38






         TIME SUMMARY AT END OF TIME STEP  206 IN STRESS PERIOD    1
                    SECONDS     MINUTES      HOURS       DAYS        YEARS
                    -----------------------------------------------------------
   TIME STEP LENGTH  86400.      1440.0      24.000      1.0000     2.73785E-03
 STRESS PERIOD TIME 1.77984E+07 2.96640E+05  4944.0      206.00     0.56400    
         TOTAL TIME 1.77984E+07 2.96640E+05  4944.0      206.00     0.56400    
1
 
 SOLVING FOR HEAD 
                                                   Max.-Head-Change                        Max.-Flux-Residual
  Residual-Control   Outer-Iter.   Inner-Iter.     Column Row Layer    Max.-Head-Change    Column Row Layer    Max.-Flux-Residual            L2-New               L2-Old           Solver-Max-Delh
          0                 1           2            24   19     1       0.1755912205E+00      29    3    1      -0.3056582277E+03      0.1803162876E+04      0.9041287675E+01      0.1755912205E+00
          0                 2           2            24   19     1      -0.1516478651E-01      29    3    1       0.3056307898E+02      0.1802867374E+03      0.1803162876E+04     -0.1516478651E-01

    ------------------------------------------------
       NWT REQUIRED            2 OUTER ITERATIONS 
       AND A TOTAL OF          4 INNER ITERATIONS.
    ------------------------------------------------

 OUTPUT CONTROL FOR STRESS PERIOD    1   TIME STEP  207
    SAVE HEAD FOR ALL LAYERS
    SAVE DRAWDOWN FOR ALL LAYERS
    SAVE BUDGET
    PRINT BUDGET
 UBDSV1 SAVING "         STORAGE" ON UNIT   9 AT TIME STEP207, STRESS PERIOD   1
 UBDSV2 SAVING "   CONSTANT HEAD" ON UNIT   9 AT TIME STEP207, STRESS PERIOD   1
 UBDSV1 SAVING "FLOW RIGHT FACE " ON UNIT   9 AT TIME STEP207, STRESS PERIOD   1
 UBDSV1 SAVING "FLOW FRONT FACE " ON UNIT   9 AT TIME STEP207, STRESS PERIOD   1
 UBDSV4 SAVING "   RIVER LEAKAGE" ON UNIT   9 AT TIME STEP207, STRESS PERIOD   1
 UBDSV3 SAVING "        RECHARGE" ON UNIT   9 AT TIME STEP207, STRESS PERIOD   1

 HEAD WILL BE SAVED ON UNIT 5037 AT END OF TIME STEP  207, STRESS PERIOD    1

 DRAWDOWN WILL BE SAVED ON UNIT   38 AT END OF TIME STEP  207, STRESS PERIOD    1
1
  VOLUMETRIC BUDGET FOR ENTIRE MODEL AT END OF TIME STEP  207, STRESS PERIOD   1
  ------------------------------------------------------------------------------

     CUMULATIVE VOLUMES      L**3       RATES FOR THIS TIME STEP      L**3/T
     ------------------                 ------------------------

           IN:                                      IN:
           ---                                      ---
             STORAGE =     8946343.0000               STORAGE =       25363.1641
       CONSTANT HEAD =           0.0000         CONSTANT HEAD =           0.0000
       RIVER LEAKAGE =     1219413.3750         RIVER LEAKAGE =        6123.4702
            RECHARGE =     3134741.2500              RECHARGE =          89.0722

            TOTAL IN =    13300497.0000              TOTAL IN =       31575.7070

          OUT:                                     OUT:
          ----                                     ----
             STORAGE =     5045630.5000               STORAGE =        1433.6665
       CONSTANT HEAD =           0.0000         CONSTANT HEAD =           0.0000
       RIVER LEAKAGE =     8243176.5000         RIVER LEAKAGE =       30022.8105
            RECHARGE =           0.0000              RECHARGE =           0.0000

           TOTAL OUT =    13288807.0000             TOTAL OUT =       31456.4766

            IN - OUT =       11690.0000              IN - OUT =         119.2305

 PERCENT DISCREPANCY =           0.09     PERCENT DISCREPANCY =           0.38






         TIME SUMMARY AT END OF TIME STEP  207 IN STRESS PERIOD    1
                    SECONDS     MINUTES      HOURS       DAYS        YEARS
                    -----------------------------------------------------------
   TIME STEP LENGTH  86400.      1440.0      24.000      1.0000     2.73785E-03
 STRESS PERIOD TIME 1.78848E+07 2.98080E+05  4968.0      207.00     0.56674    
         TOTAL TIME 1.78848E+07 2.98080E+05  4968.0      207.00     0.56674    
1
 
 SOLVING FOR HEAD 
                                                   Max.-Head-Change                        Max.-Flux-Residual
  Residual-Control   Outer-Iter.   Inner-Iter.     Column Row Layer    Max.-Head-Change    Column Row Layer    Max.-Flux-Residual            L2-New               L2-Old           Solver-Max-Delh
          0                 1           2            24   19     1       0.1417043101E+00      29    3    1      -0.3053042803E+03      0.1798047921E+04      0.9014111958E+01      0.1417043101E+00
          0                 2           2            24   19     1      -0.1223818615E-01      29    3    1       0.3052768773E+02      0.1797754634E+03      0.1798047921E+04     -0.1223818615E-01

    ------------------------------------------------
       NWT REQUIRED            2 OUTER ITERATIONS 
       AND A TOTAL OF          4 INNER ITERATIONS.
    ------------------------------------------------

 OUTPUT CONTROL FOR STRESS PERIOD    1   TIME STEP  208
    SAVE HEAD FOR ALL LAYERS
    SAVE DRAWDOWN FOR ALL LAYERS
    SAVE BUDGET
    PRINT BUDGET
 UBDSV1 SAVING "         STORAGE" ON UNIT   9 AT TIME STEP208, STRESS PERIOD   1
 UBDSV2 SAVING "   CONSTANT HEAD" ON UNIT   9 AT TIME STEP208, STRESS PERIOD   1
 UBDSV1 SAVING "FLOW RIGHT FACE " ON UNIT   9 AT TIME STEP208, STRESS PERIOD   1
 UBDSV1 SAVING "FLOW FRONT FACE " ON UNIT   9 AT TIME STEP208, STRESS PERIOD   1
 UBDSV4 SAVING "   RIVER LEAKAGE" ON UNIT   9 AT TIME STEP208, STRESS PERIOD   1
 UBDSV3 SAVING "        RECHARGE" ON UNIT   9 AT TIME STEP208, STRESS PERIOD   1

 HEAD WILL BE SAVED ON UNIT 5037 AT END OF TIME STEP  208, STRESS PERIOD    1

 DRAWDOWN WILL BE SAVED ON UNIT   38 AT END OF TIME STEP  208, STRESS PERIOD    1
1
  VOLUMETRIC BUDGET FOR ENTIRE MODEL AT END OF TIME STEP  208, STRESS PERIOD   1
  ------------------------------------------------------------------------------

     CUMULATIVE VOLUMES      L**3       RATES FOR THIS TIME STEP      L**3/T
     ------------------                 ------------------------

           IN:                                      IN:
           ---                                      ---
             STORAGE =     8971653.0000               STORAGE =       25309.5840
       CONSTANT HEAD =           0.0000         CONSTANT HEAD =           0.0000
       RIVER LEAKAGE =     1225542.6250         RIVER LEAKAGE =        6129.2754
            RECHARGE =     3134829.2500              RECHARGE =          88.0719

            TOTAL IN =    13332025.0000              TOTAL IN =       31526.9316

          OUT:                                     OUT:
          ----                                     ----
             STORAGE =     5047049.0000               STORAGE =        1418.5186
       CONSTANT HEAD =           0.0000         CONSTANT HEAD =           0.0000
       RIVER LEAKAGE =     8273166.0000         RIVER LEAKAGE =       29989.3770
            RECHARGE =           0.0000              RECHARGE =           0.0000

           TOTAL OUT =    13320215.0000             TOTAL OUT =       31407.8945

            IN - OUT =       11810.0000              IN - OUT =         119.0371

 PERCENT DISCREPANCY =           0.09     PERCENT DISCREPANCY =           0.38






         TIME SUMMARY AT END OF TIME STEP  208 IN STRESS PERIOD    1
                    SECONDS     MINUTES      HOURS       DAYS        YEARS
                    -----------------------------------------------------------
   TIME STEP LENGTH  86400.      1440.0      24.000      1.0000     2.73785E-03
 STRESS PERIOD TIME 1.79712E+07 2.99520E+05  4992.0      208.00     0.56947    
         TOTAL TIME 1.79712E+07 2.99520E+05  4992.0      208.00     0.56947    
1
 
 SOLVING FOR HEAD 
                                                   Max.-Head-Change                        Max.-Flux-Residual
  Residual-Control   Outer-Iter.   Inner-Iter.     Column Row Layer    Max.-Head-Change    Column Row Layer    Max.-Flux-Residual            L2-New               L2-Old           Solver-Max-Delh
          0                 1           2            24   19     1       0.1165777005E+00      29    3    1      -0.3049411033E+03      0.1793108489E+04      0.8988549919E+01      0.1165777005E+00
          0                 2           2            24   19     1      -0.1006815292E-01      29    3    1       0.3049137340E+02      0.1792809545E+03      0.1793108489E+04     -0.1006815292E-01

    ------------------------------------------------
       NWT REQUIRED            2 OUTER ITERATIONS 
       AND A TOTAL OF          4 INNER ITERATIONS.
    ------------------------------------------------

 OUTPUT CONTROL FOR STRESS PERIOD    1   TIME STEP  209
    SAVE HEAD FOR ALL LAYERS
    SAVE DRAWDOWN FOR ALL LAYERS
    SAVE BUDGET
    PRINT BUDGET
 UBDSV1 SAVING "         STORAGE" ON UNIT   9 AT TIME STEP209, STRESS PERIOD   1
 UBDSV2 SAVING "   CONSTANT HEAD" ON UNIT   9 AT TIME STEP209, STRESS PERIOD   1
 UBDSV1 SAVING "FLOW RIGHT FACE " ON UNIT   9 AT TIME STEP209, STRESS PERIOD   1
 UBDSV1 SAVING "FLOW FRONT FACE " ON UNIT   9 AT TIME STEP209, STRESS PERIOD   1
 UBDSV4 SAVING "   RIVER LEAKAGE" ON UNIT   9 AT TIME STEP209, STRESS PERIOD   1
 UBDSV3 SAVING "        RECHARGE" ON UNIT   9 AT TIME STEP209, STRESS PERIOD   1

 HEAD WILL BE SAVED ON UNIT 5037 AT END OF TIME STEP  209, STRESS PERIOD    1

 DRAWDOWN WILL BE SAVED ON UNIT   38 AT END OF TIME STEP  209, STRESS PERIOD    1
1
  VOLUMETRIC BUDGET FOR ENTIRE MODEL AT END OF TIME STEP  209, STRESS PERIOD   1
  ------------------------------------------------------------------------------

     CUMULATIVE VOLUMES      L**3       RATES FOR THIS TIME STEP      L**3/T
     ------------------                 ------------------------

           IN:                                      IN:
           ---                                      ---
             STORAGE =     8996909.0000               STORAGE =       25256.3887
       CONSTANT HEAD =           0.0000         CONSTANT HEAD =           0.0000
       RIVER LEAKAGE =     1231677.7500         RIVER LEAKAGE =        6135.1123
            RECHARGE =     3134916.2500              RECHARGE =          87.0901

            TOTAL IN =    13363503.0000              TOTAL IN =       31478.5898

          OUT:                                     OUT:
          ----                                     ----
             STORAGE =     5048452.5000               STORAGE =        1403.5991
       CONSTANT HEAD =           0.0000         CONSTANT HEAD =           0.0000
       RIVER LEAKAGE =     8303122.0000         RIVER LEAKAGE =       29956.1504
            RECHARGE =           0.0000              RECHARGE =           0.0000

           TOTAL OUT =    13351574.0000             TOTAL OUT =       31359.7500

            IN - OUT =       11929.0000              IN - OUT =         118.8398

 PERCENT DISCREPANCY =           0.09     PERCENT DISCREPANCY =           0.38






         TIME SUMMARY AT END OF TIME STEP  209 IN STRESS PERIOD    1
                    SECONDS     MINUTES      HOURS       DAYS        YEARS
                    -----------------------------------------------------------
   TIME STEP LENGTH  86400.      1440.0      24.000      1.0000     2.73785E-03
 STRESS PERIOD TIME 1.80576E+07 3.00960E+05  5016.0      209.00     0.57221    
         TOTAL TIME 1.80576E+07 3.00960E+05  5016.0      209.00     0.57221    
1
 
 SOLVING FOR HEAD 
                                                   Max.-Head-Change                        Max.-Flux-Residual
  Residual-Control   Outer-Iter.   Inner-Iter.     Column Row Layer    Max.-Head-Change    Column Row Layer    Max.-Flux-Residual            L2-New               L2-Old           Solver-Max-Delh
          0                 1           2            24   19     1       0.9760264237E-01      29    3    1      -0.3045814945E+03      0.1788281347E+04      0.8963832261E+01      0.9760264237E-01
          0                 2           2            25   20     1       0.1351936354E+00      25   20    1       0.5113282580E+02      0.1856707895E+03      0.1788281347E+04      0.1351936354E+00
          0                 3           2            25   20     1      -0.1167581360E-01      25   20    1      -0.5113282657E+01      0.1028406580E+02      0.1856707895E+03     -0.1167581360E-01

    ------------------------------------------------
       NWT REQUIRED            3 OUTER ITERATIONS 
       AND A TOTAL OF          6 INNER ITERATIONS.
    ------------------------------------------------

 OUTPUT CONTROL FOR STRESS PERIOD    1   TIME STEP  210
    SAVE HEAD FOR ALL LAYERS
    SAVE DRAWDOWN FOR ALL LAYERS
    SAVE BUDGET
    PRINT BUDGET
 UBDSV1 SAVING "         STORAGE" ON UNIT   9 AT TIME STEP210, STRESS PERIOD   1
 UBDSV2 SAVING "   CONSTANT HEAD" ON UNIT   9 AT TIME STEP210, STRESS PERIOD   1
 UBDSV1 SAVING "FLOW RIGHT FACE " ON UNIT   9 AT TIME STEP210, STRESS PERIOD   1
 UBDSV1 SAVING "FLOW FRONT FACE " ON UNIT   9 AT TIME STEP210, STRESS PERIOD   1
 UBDSV4 SAVING "   RIVER LEAKAGE" ON UNIT   9 AT TIME STEP210, STRESS PERIOD   1
 UBDSV3 SAVING "        RECHARGE" ON UNIT   9 AT TIME STEP210, STRESS PERIOD   1

 HEAD WILL BE SAVED ON UNIT 5037 AT END OF TIME STEP  210, STRESS PERIOD    1

 DRAWDOWN WILL BE SAVED ON UNIT   38 AT END OF TIME STEP  210, STRESS PERIOD    1
1
  VOLUMETRIC BUDGET FOR ENTIRE MODEL AT END OF TIME STEP  210, STRESS PERIOD   1
  ------------------------------------------------------------------------------

     CUMULATIVE VOLUMES      L**3       RATES FOR THIS TIME STEP      L**3/T
     ------------------                 ------------------------

           IN:                                      IN:
           ---                                      ---
             STORAGE =     9021993.0000               STORAGE =       25084.4668
       CONSTANT HEAD =           0.0000         CONSTANT HEAD =           0.0000
       RIVER LEAKAGE =     1237818.6250         RIVER LEAKAGE =        6140.9004
            RECHARGE =     3135002.5000              RECHARGE =          86.1264

            TOTAL IN =    13394814.0000              TOTAL IN =       31311.4941

          OUT:                                     OUT:
          ----                                     ----
             STORAGE =     5049835.0000               STORAGE =        1382.5089
       CONSTANT HEAD =           0.0000         CONSTANT HEAD =           0.0000
       RIVER LEAKAGE =     8333045.0000         RIVER LEAKAGE =       29923.2383
            RECHARGE =           0.0000              RECHARGE =           0.0000

           TOTAL OUT =    13382880.0000             TOTAL OUT =       31305.7480

            IN - OUT =       11934.0000              IN - OUT =           5.7461

 PERCENT DISCREPANCY =           0.09     PERCENT DISCREPANCY =           0.02






         TIME SUMMARY AT END OF TIME STEP  210 IN STRESS PERIOD    1
                    SECONDS     MINUTES      HOURS       DAYS        YEARS
                    -----------------------------------------------------------
   TIME STEP LENGTH  86400.      1440.0      24.000      1.0000     2.73785E-03
 STRESS PERIOD TIME 1.81440E+07 3.02400E+05  5040.0      210.00     0.57495    
         TOTAL TIME 1.81440E+07 3.02400E+05  5040.0      210.00     0.57495    
1
 
 SOLVING FOR HEAD 
                                                   Max.-Head-Change                        Max.-Flux-Residual
  Residual-Control   Outer-Iter.   Inner-Iter.     Column Row Layer    Max.-Head-Change    Column Row Layer    Max.-Flux-Residual            L2-New               L2-Old           Solver-Max-Delh
          0                 1           2            25   20     1       0.2520942351E+00      29    3    1      -0.3042121529E+03      0.1782778865E+04      0.1028406580E+02      0.2520942351E+00
          0                 2           2            25   20     1      -0.2177180209E-01      29    3    1       0.3041848600E+02      0.1782491381E+03      0.1782778865E+04     -0.2177180209E-01

    ------------------------------------------------
       NWT REQUIRED            2 OUTER ITERATIONS 
       AND A TOTAL OF          4 INNER ITERATIONS.
    ------------------------------------------------

 OUTPUT CONTROL FOR STRESS PERIOD    1   TIME STEP  211
    SAVE HEAD FOR ALL LAYERS
    SAVE DRAWDOWN FOR ALL LAYERS
    SAVE BUDGET
    PRINT BUDGET
 UBDSV1 SAVING "         STORAGE" ON UNIT   9 AT TIME STEP211, STRESS PERIOD   1
 UBDSV2 SAVING "   CONSTANT HEAD" ON UNIT   9 AT TIME STEP211, STRESS PERIOD   1
 UBDSV1 SAVING "FLOW RIGHT FACE " ON UNIT   9 AT TIME STEP211, STRESS PERIOD   1
 UBDSV1 SAVING "FLOW FRONT FACE " ON UNIT   9 AT TIME STEP211, STRESS PERIOD   1
 UBDSV4 SAVING "   RIVER LEAKAGE" ON UNIT   9 AT TIME STEP211, STRESS PERIOD   1
 UBDSV3 SAVING "        RECHARGE" ON UNIT   9 AT TIME STEP211, STRESS PERIOD   1

 HEAD WILL BE SAVED ON UNIT 5037 AT END OF TIME STEP  211, STRESS PERIOD    1

 DRAWDOWN WILL BE SAVED ON UNIT   38 AT END OF TIME STEP  211, STRESS PERIOD    1
1
  VOLUMETRIC BUDGET FOR ENTIRE MODEL AT END OF TIME STEP  211, STRESS PERIOD   1
  ------------------------------------------------------------------------------

     CUMULATIVE VOLUMES      L**3       RATES FOR THIS TIME STEP      L**3/T
     ------------------                 ------------------------

           IN:                                      IN:
           ---                                      ---
             STORAGE =     9047144.0000               STORAGE =       25151.1113
       CONSTANT HEAD =           0.0000         CONSTANT HEAD =           0.0000
       RIVER LEAKAGE =     1243965.3750         RIVER LEAKAGE =        6146.7065
            RECHARGE =     3135087.7500              RECHARGE =          85.1804

            TOTAL IN =    13426197.0000              TOTAL IN =       31382.9980

          OUT:                                     OUT:
          ----                                     ----
             STORAGE =     5051209.5000               STORAGE =        1374.3518
       CONSTANT HEAD =           0.0000         CONSTANT HEAD =           0.0000
       RIVER LEAKAGE =     8362935.0000         RIVER LEAKAGE =       29890.1797
            RECHARGE =           0.0000              RECHARGE =           0.0000

           TOTAL OUT =    13414144.0000             TOTAL OUT =       31264.5312

            IN - OUT =       12053.0000              IN - OUT =         118.4668

 PERCENT DISCREPANCY =           0.09     PERCENT DISCREPANCY =           0.38






         TIME SUMMARY AT END OF TIME STEP  211 IN STRESS PERIOD    1
                    SECONDS     MINUTES      HOURS       DAYS        YEARS
                    -----------------------------------------------------------
   TIME STEP LENGTH  86400.      1440.0      24.000      1.0000     2.73785E-03
 STRESS PERIOD TIME 1.82304E+07 3.03840E+05  5064.0      211.00     0.57769    
         TOTAL TIME 1.82304E+07 3.03840E+05  5064.0      211.00     0.57769    
1
 
 SOLVING FOR HEAD 
                                                   Max.-Head-Change                        Max.-Flux-Residual
  Residual-Control   Outer-Iter.   Inner-Iter.     Column Row Layer    Max.-Head-Change    Column Row Layer    Max.-Flux-Residual            L2-New               L2-Old           Solver-Max-Delh
          0                 1           2            25   20     1       0.1956871998E+00      29    3    1      -0.3038481582E+03      0.1777187056E+04      0.8912238020E+01      0.1956871998E+00
          0                 2           2            25   20     1      -0.1690029207E-01      29    3    1       0.3038209019E+02      0.1776901526E+03      0.1777187056E+04     -0.1690029207E-01

    ------------------------------------------------
       NWT REQUIRED            2 OUTER ITERATIONS 
       AND A TOTAL OF          4 INNER ITERATIONS.
    ------------------------------------------------

 OUTPUT CONTROL FOR STRESS PERIOD    1   TIME STEP  212
    SAVE HEAD FOR ALL LAYERS
    SAVE DRAWDOWN FOR ALL LAYERS
    SAVE BUDGET
    PRINT BUDGET
 UBDSV1 SAVING "         STORAGE" ON UNIT   9 AT TIME STEP212, STRESS PERIOD   1
 UBDSV2 SAVING "   CONSTANT HEAD" ON UNIT   9 AT TIME STEP212, STRESS PERIOD   1
 UBDSV1 SAVING "FLOW RIGHT FACE " ON UNIT   9 AT TIME STEP212, STRESS PERIOD   1
 UBDSV1 SAVING "FLOW FRONT FACE " ON UNIT   9 AT TIME STEP212, STRESS PERIOD   1
 UBDSV4 SAVING "   RIVER LEAKAGE" ON UNIT   9 AT TIME STEP212, STRESS PERIOD   1
 UBDSV3 SAVING "        RECHARGE" ON UNIT   9 AT TIME STEP212, STRESS PERIOD   1

 HEAD WILL BE SAVED ON UNIT 5037 AT END OF TIME STEP  212, STRESS PERIOD    1

 DRAWDOWN WILL BE SAVED ON UNIT   38 AT END OF TIME STEP  212, STRESS PERIOD    1
1
  VOLUMETRIC BUDGET FOR ENTIRE MODEL AT END OF TIME STEP  212, STRESS PERIOD   1
  ------------------------------------------------------------------------------

     CUMULATIVE VOLUMES      L**3       RATES FOR THIS TIME STEP      L**3/T
     ------------------                 ------------------------

           IN:                                      IN:
           ---                                      ---
             STORAGE =     9072243.0000               STORAGE =       25098.9316
       CONSTANT HEAD =           0.0000         CONSTANT HEAD =           0.0000
       RIVER LEAKAGE =     1250117.8750         RIVER LEAKAGE =        6152.4834
            RECHARGE =     3135172.0000              RECHARGE =          84.2515

            TOTAL IN =    13457533.0000              TOTAL IN =       31335.6660

          OUT:                                     OUT:
          ----                                     ----
             STORAGE =     5052569.5000               STORAGE =        1359.9609
       CONSTANT HEAD =           0.0000         CONSTANT HEAD =           0.0000
       RIVER LEAKAGE =     8392792.0000         RIVER LEAKAGE =       29857.4277
            RECHARGE =           0.0000              RECHARGE =           0.0000

           TOTAL OUT =    13445362.0000             TOTAL OUT =       31217.3887

            IN - OUT =       12171.0000              IN - OUT =         118.2773

 PERCENT DISCREPANCY =           0.09     PERCENT DISCREPANCY =           0.38






         TIME SUMMARY AT END OF TIME STEP  212 IN STRESS PERIOD    1
                    SECONDS     MINUTES      HOURS       DAYS        YEARS
                    -----------------------------------------------------------
   TIME STEP LENGTH  86400.      1440.0      24.000      1.0000     2.73785E-03
 STRESS PERIOD TIME 1.83168E+07 3.05280E+05  5088.0      212.00     0.58042    
         TOTAL TIME 1.83168E+07 3.05280E+05  5088.0      212.00     0.58042    
1
 
 SOLVING FOR HEAD 
                                                   Max.-Head-Change                        Max.-Flux-Residual
  Residual-Control   Outer-Iter.   Inner-Iter.     Column Row Layer    Max.-Head-Change    Column Row Layer    Max.-Flux-Residual            L2-New               L2-Old           Solver-Max-Delh
          0                 1           2            25   20     1       0.1557178560E+00      29    3    1      -0.3034613722E+03      0.1772095877E+04      0.8884290215E+01      0.1557178560E+00
          0                 2           2            25   20     1      -0.1344839651E-01      29    3    1       0.3034341685E+02      0.1771812360E+03      0.1772095877E+04     -0.1344839651E-01

    ------------------------------------------------
       NWT REQUIRED            2 OUTER ITERATIONS 
       AND A TOTAL OF          4 INNER ITERATIONS.
    ------------------------------------------------

 OUTPUT CONTROL FOR STRESS PERIOD    1   TIME STEP  213
    SAVE HEAD FOR ALL LAYERS
    SAVE DRAWDOWN FOR ALL LAYERS
    SAVE BUDGET
    PRINT BUDGET
 UBDSV1 SAVING "         STORAGE" ON UNIT   9 AT TIME STEP213, STRESS PERIOD   1
 UBDSV2 SAVING "   CONSTANT HEAD" ON UNIT   9 AT TIME STEP213, STRESS PERIOD   1
 UBDSV1 SAVING "FLOW RIGHT FACE " ON UNIT   9 AT TIME STEP213, STRESS PERIOD   1
 UBDSV1 SAVING "FLOW FRONT FACE " ON UNIT   9 AT TIME STEP213, STRESS PERIOD   1
 UBDSV4 SAVING "   RIVER LEAKAGE" ON UNIT   9 AT TIME STEP213, STRESS PERIOD   1
 UBDSV3 SAVING "        RECHARGE" ON UNIT   9 AT TIME STEP213, STRESS PERIOD   1

 HEAD WILL BE SAVED ON UNIT 5037 AT END OF TIME STEP  213, STRESS PERIOD    1

 DRAWDOWN WILL BE SAVED ON UNIT   38 AT END OF TIME STEP  213, STRESS PERIOD    1
1
  VOLUMETRIC BUDGET FOR ENTIRE MODEL AT END OF TIME STEP  213, STRESS PERIOD   1
  ------------------------------------------------------------------------------

     CUMULATIVE VOLUMES      L**3       RATES FOR THIS TIME STEP      L**3/T
     ------------------                 ------------------------

           IN:                                      IN:
           ---                                      ---
             STORAGE =     9097290.0000               STORAGE =       25047.0996
       CONSTANT HEAD =           0.0000         CONSTANT HEAD =           0.0000
       RIVER LEAKAGE =     1256276.1250         RIVER LEAKAGE =        6158.2188
            RECHARGE =     3135255.2500              RECHARGE =          83.3395

            TOTAL IN =    13488821.0000              TOTAL IN =       31288.6582

          OUT:                                     OUT:
          ----                                     ----
             STORAGE =     5053915.0000               STORAGE =        1345.7128
       CONSTANT HEAD =           0.0000         CONSTANT HEAD =           0.0000
       RIVER LEAKAGE =     8422617.0000         RIVER LEAKAGE =       29824.8574
            RECHARGE =           0.0000              RECHARGE =           0.0000

           TOTAL OUT =    13476532.0000             TOTAL OUT =       31170.5703

            IN - OUT =       12289.0000              IN - OUT =         118.0879

 PERCENT DISCREPANCY =           0.09     PERCENT DISCREPANCY =           0.38






         TIME SUMMARY AT END OF TIME STEP  213 IN STRESS PERIOD    1
                    SECONDS     MINUTES      HOURS       DAYS        YEARS
                    -----------------------------------------------------------
   TIME STEP LENGTH  86400.      1440.0      24.000      1.0000     2.73785E-03
 STRESS PERIOD TIME 1.84032E+07 3.06720E+05  5112.0      213.00     0.58316    
         TOTAL TIME 1.84032E+07 3.06720E+05  5112.0      213.00     0.58316    
1
 
 SOLVING FOR HEAD 
                                                   Max.-Head-Change                        Max.-Flux-Residual
  Residual-Control   Outer-Iter.   Inner-Iter.     Column Row Layer    Max.-Head-Change    Column Row Layer    Max.-Flux-Residual            L2-New               L2-Old           Solver-Max-Delh
          0                 1           2            25   20     1       0.1266815878E+00      29    3    1      -0.3030953788E+03      0.1767259018E+04      0.8858845898E+01      0.1266815878E+00
          0                 2           2            25   20     1      -0.1094071850E-01      29    3    1       0.3030682140E+02      0.1766977526E+03      0.1767259018E+04     -0.1094071850E-01

    ------------------------------------------------
       NWT REQUIRED            2 OUTER ITERATIONS 
       AND A TOTAL OF          4 INNER ITERATIONS.
    ------------------------------------------------

 OUTPUT CONTROL FOR STRESS PERIOD    1   TIME STEP  214
    SAVE HEAD FOR ALL LAYERS
    SAVE DRAWDOWN FOR ALL LAYERS
    SAVE BUDGET
    PRINT BUDGET
 UBDSV1 SAVING "         STORAGE" ON UNIT   9 AT TIME STEP214, STRESS PERIOD   1
 UBDSV2 SAVING "   CONSTANT HEAD" ON UNIT   9 AT TIME STEP214, STRESS PERIOD   1
 UBDSV1 SAVING "FLOW RIGHT FACE " ON UNIT   9 AT TIME STEP214, STRESS PERIOD   1
 UBDSV1 SAVING "FLOW FRONT FACE " ON UNIT   9 AT TIME STEP214, STRESS PERIOD   1
 UBDSV4 SAVING "   RIVER LEAKAGE" ON UNIT   9 AT TIME STEP214, STRESS PERIOD   1
 UBDSV3 SAVING "        RECHARGE" ON UNIT   9 AT TIME STEP214, STRESS PERIOD   1

 HEAD WILL BE SAVED ON UNIT 5037 AT END OF TIME STEP  214, STRESS PERIOD    1

 DRAWDOWN WILL BE SAVED ON UNIT   38 AT END OF TIME STEP  214, STRESS PERIOD    1
1
  VOLUMETRIC BUDGET FOR ENTIRE MODEL AT END OF TIME STEP  214, STRESS PERIOD   1
  ------------------------------------------------------------------------------

     CUMULATIVE VOLUMES      L**3       RATES FOR THIS TIME STEP      L**3/T
     ------------------                 ------------------------

           IN:                                      IN:
           ---                                      ---
             STORAGE =     9122286.0000               STORAGE =       24995.5820
       CONSTANT HEAD =           0.0000         CONSTANT HEAD =           0.0000
       RIVER LEAKAGE =     1262440.0000         RIVER LEAKAGE =        6163.9336
            RECHARGE =     3135337.7500              RECHARGE =          82.4439

            TOTAL IN =    13520064.0000              TOTAL IN =       31241.9590

          OUT:                                     OUT:
          ----                                     ----
             STORAGE =     5055246.5000               STORAGE =        1331.6107
       CONSTANT HEAD =           0.0000         CONSTANT HEAD =           0.0000
       RIVER LEAKAGE =     8452409.0000         RIVER LEAKAGE =       29792.4473
            RECHARGE =           0.0000              RECHARGE =           0.0000

           TOTAL OUT =    13507656.0000             TOTAL OUT =       31124.0586

            IN - OUT =       12408.0000              IN - OUT =         117.9004

 PERCENT DISCREPANCY =           0.09     PERCENT DISCREPANCY =           0.38






         TIME SUMMARY AT END OF TIME STEP  214 IN STRESS PERIOD    1
                    SECONDS     MINUTES      HOURS       DAYS        YEARS
                    -----------------------------------------------------------
   TIME STEP LENGTH  86400.      1440.0      24.000      1.0000     2.73785E-03
 STRESS PERIOD TIME 1.84896E+07 3.08160E+05  5136.0      214.00     0.58590    
         TOTAL TIME 1.84896E+07 3.08160E+05  5136.0      214.00     0.58590    
1
 
 SOLVING FOR HEAD 
                                                   Max.-Head-Change                        Max.-Flux-Residual
  Residual-Control   Outer-Iter.   Inner-Iter.     Column Row Layer    Max.-Head-Change    Column Row Layer    Max.-Flux-Residual            L2-New               L2-Old           Solver-Max-Delh
          0                 1           2            25   20     1       0.1051414555E+00      29    3    1      -0.3027070071E+03      0.1762555659E+04      0.8834673249E+01      0.1051414555E+00
          0                 2           2            25   20     1      -0.9080432575E-02      29    3    1       0.3026798967E+02      0.1762276184E+03      0.1762555659E+04     -0.9080432575E-02

    ------------------------------------------------
       NWT REQUIRED            2 OUTER ITERATIONS 
       AND A TOTAL OF          4 INNER ITERATIONS.
    ------------------------------------------------

 OUTPUT CONTROL FOR STRESS PERIOD    1   TIME STEP  215
    SAVE HEAD FOR ALL LAYERS
    SAVE DRAWDOWN FOR ALL LAYERS
    SAVE BUDGET
    PRINT BUDGET
 UBDSV1 SAVING "         STORAGE" ON UNIT   9 AT TIME STEP215, STRESS PERIOD   1
 UBDSV2 SAVING "   CONSTANT HEAD" ON UNIT   9 AT TIME STEP215, STRESS PERIOD   1
 UBDSV1 SAVING "FLOW RIGHT FACE " ON UNIT   9 AT TIME STEP215, STRESS PERIOD   1
 UBDSV1 SAVING "FLOW FRONT FACE " ON UNIT   9 AT TIME STEP215, STRESS PERIOD   1
 UBDSV4 SAVING "   RIVER LEAKAGE" ON UNIT   9 AT TIME STEP215, STRESS PERIOD   1
 UBDSV3 SAVING "        RECHARGE" ON UNIT   9 AT TIME STEP215, STRESS PERIOD   1

 HEAD WILL BE SAVED ON UNIT 5037 AT END OF TIME STEP  215, STRESS PERIOD    1

 DRAWDOWN WILL BE SAVED ON UNIT   38 AT END OF TIME STEP  215, STRESS PERIOD    1
1
  VOLUMETRIC BUDGET FOR ENTIRE MODEL AT END OF TIME STEP  215, STRESS PERIOD   1
  ------------------------------------------------------------------------------

     CUMULATIVE VOLUMES      L**3       RATES FOR THIS TIME STEP      L**3/T
     ------------------                 ------------------------

           IN:                                      IN:
           ---                                      ---
             STORAGE =     9147230.0000               STORAGE =       24944.4004
       CONSTANT HEAD =           0.0000         CONSTANT HEAD =           0.0000
       RIVER LEAKAGE =     1268609.6250         RIVER LEAKAGE =        6169.6196
            RECHARGE =     3135419.2500              RECHARGE =          81.5643

            TOTAL IN =    13551259.0000              TOTAL IN =       31195.5840

          OUT:                                     OUT:
          ----                                     ----
             STORAGE =     5056564.0000               STORAGE =        1317.6702
       CONSTANT HEAD =           0.0000         CONSTANT HEAD =           0.0000
       RIVER LEAKAGE =     8482169.0000         RIVER LEAKAGE =       29760.1992
            RECHARGE =           0.0000              RECHARGE =           0.0000

           TOTAL OUT =    13538733.0000             TOTAL OUT =       31077.8691

            IN - OUT =       12526.0000              IN - OUT =         117.7148

 PERCENT DISCREPANCY =           0.09     PERCENT DISCREPANCY =           0.38






         TIME SUMMARY AT END OF TIME STEP  215 IN STRESS PERIOD    1
                    SECONDS     MINUTES      HOURS       DAYS        YEARS
                    -----------------------------------------------------------
   TIME STEP LENGTH  86400.      1440.0      24.000      1.0000     2.73785E-03
 STRESS PERIOD TIME 1.85760E+07 3.09600E+05  5160.0      215.00     0.58864    
         TOTAL TIME 1.85760E+07 3.09600E+05  5160.0      215.00     0.58864    
1
 
 SOLVING FOR HEAD 
                                                   Max.-Head-Change                        Max.-Flux-Residual
  Residual-Control   Outer-Iter.   Inner-Iter.     Column Row Layer    Max.-Head-Change    Column Row Layer    Max.-Flux-Residual            L2-New               L2-Old           Solver-Max-Delh
          0                 1           2            25   20     1       0.8876489493E-01      29    3    1      -0.3023397775E+03      0.1757950325E+04      0.8811168057E+01      0.8876489493E-01
          0                 2           2            25   20     1      -0.7666090732E-02      29    3    1       0.3023127127E+02      0.1757672919E+03      0.1757950325E+04     -0.7666090732E-02

    ------------------------------------------------
       NWT REQUIRED            2 OUTER ITERATIONS 
       AND A TOTAL OF          4 INNER ITERATIONS.
    ------------------------------------------------

 OUTPUT CONTROL FOR STRESS PERIOD    1   TIME STEP  216
    SAVE HEAD FOR ALL LAYERS
    SAVE DRAWDOWN FOR ALL LAYERS
    SAVE BUDGET
    PRINT BUDGET
 UBDSV1 SAVING "         STORAGE" ON UNIT   9 AT TIME STEP216, STRESS PERIOD   1
 UBDSV2 SAVING "   CONSTANT HEAD" ON UNIT   9 AT TIME STEP216, STRESS PERIOD   1
 UBDSV1 SAVING "FLOW RIGHT FACE " ON UNIT   9 AT TIME STEP216, STRESS PERIOD   1
 UBDSV1 SAVING "FLOW FRONT FACE " ON UNIT   9 AT TIME STEP216, STRESS PERIOD   1
 UBDSV4 SAVING "   RIVER LEAKAGE" ON UNIT   9 AT TIME STEP216, STRESS PERIOD   1
 UBDSV3 SAVING "        RECHARGE" ON UNIT   9 AT TIME STEP216, STRESS PERIOD   1

 HEAD WILL BE SAVED ON UNIT 5037 AT END OF TIME STEP  216, STRESS PERIOD    1

 DRAWDOWN WILL BE SAVED ON UNIT   38 AT END OF TIME STEP  216, STRESS PERIOD    1
1
  VOLUMETRIC BUDGET FOR ENTIRE MODEL AT END OF TIME STEP  216, STRESS PERIOD   1
  ------------------------------------------------------------------------------

     CUMULATIVE VOLUMES      L**3       RATES FOR THIS TIME STEP      L**3/T
     ------------------                 ------------------------

           IN:                                      IN:
           ---                                      ---
             STORAGE =     9172124.0000               STORAGE =       24893.6367
       CONSTANT HEAD =           0.0000         CONSTANT HEAD =           0.0000
       RIVER LEAKAGE =     1274784.8750         RIVER LEAKAGE =        6175.2891
            RECHARGE =     3135500.0000              RECHARGE =          80.7003

            TOTAL IN =    13582409.0000              TOTAL IN =       31149.6270

          OUT:                                     OUT:
          ----                                     ----
             STORAGE =     5057868.0000               STORAGE =        1303.9886
       CONSTANT HEAD =           0.0000         CONSTANT HEAD =           0.0000
       RIVER LEAKAGE =     8511897.0000         RIVER LEAKAGE =       29728.1074
            RECHARGE =           0.0000              RECHARGE =           0.0000

           TOTAL OUT =    13569765.0000             TOTAL OUT =       31032.0957

            IN - OUT =       12644.0000              IN - OUT =         117.5312

 PERCENT DISCREPANCY =           0.09     PERCENT DISCREPANCY =           0.38






         TIME SUMMARY AT END OF TIME STEP  216 IN STRESS PERIOD    1
                    SECONDS     MINUTES      HOURS       DAYS        YEARS
                    -----------------------------------------------------------
   TIME STEP LENGTH  86400.      1440.0      24.000      1.0000     2.73785E-03
 STRESS PERIOD TIME 1.86624E+07 3.11040E+05  5184.0      216.00     0.59138    
         TOTAL TIME 1.86624E+07 3.11040E+05  5184.0      216.00     0.59138    
1
 
 SOLVING FOR HEAD 
                                                   Max.-Head-Change                        Max.-Flux-Residual
  Residual-Control   Outer-Iter.   Inner-Iter.     Column Row Layer    Max.-Head-Change    Column Row Layer    Max.-Flux-Residual            L2-New               L2-Old           Solver-Max-Delh
          0                 1           2            25   20     1       0.7602324465E-01      29    3    1      -0.3019516692E+03      0.1753395158E+04      0.8788157100E+01      0.7602324465E-01
          0                 2           2            25   20     1      -0.6565672612E-02      29    3    1       0.3019246601E+02      0.1753120884E+03      0.1753395158E+04     -0.6565672612E-02

    ------------------------------------------------
       NWT REQUIRED            2 OUTER ITERATIONS 
       AND A TOTAL OF          4 INNER ITERATIONS.
    ------------------------------------------------

 OUTPUT CONTROL FOR STRESS PERIOD    1   TIME STEP  217
    SAVE HEAD FOR ALL LAYERS
    SAVE DRAWDOWN FOR ALL LAYERS
    SAVE BUDGET
    PRINT BUDGET
 UBDSV1 SAVING "         STORAGE" ON UNIT   9 AT TIME STEP217, STRESS PERIOD   1
 UBDSV2 SAVING "   CONSTANT HEAD" ON UNIT   9 AT TIME STEP217, STRESS PERIOD   1
 UBDSV1 SAVING "FLOW RIGHT FACE " ON UNIT   9 AT TIME STEP217, STRESS PERIOD   1
 UBDSV1 SAVING "FLOW FRONT FACE " ON UNIT   9 AT TIME STEP217, STRESS PERIOD   1
 UBDSV4 SAVING "   RIVER LEAKAGE" ON UNIT   9 AT TIME STEP217, STRESS PERIOD   1
 UBDSV3 SAVING "        RECHARGE" ON UNIT   9 AT TIME STEP217, STRESS PERIOD   1

 HEAD WILL BE SAVED ON UNIT 5037 AT END OF TIME STEP  217, STRESS PERIOD    1

 DRAWDOWN WILL BE SAVED ON UNIT   38 AT END OF TIME STEP  217, STRESS PERIOD    1
1
  VOLUMETRIC BUDGET FOR ENTIRE MODEL AT END OF TIME STEP  217, STRESS PERIOD   1
  ------------------------------------------------------------------------------

     CUMULATIVE VOLUMES      L**3       RATES FOR THIS TIME STEP      L**3/T
     ------------------                 ------------------------

           IN:                                      IN:
           ---                                      ---
             STORAGE =     9196968.0000               STORAGE =       24843.6211
       CONSTANT HEAD =           0.0000         CONSTANT HEAD =           0.0000
       RIVER LEAKAGE =     1280965.7500         RIVER LEAKAGE =        6180.9272
            RECHARGE =     3135579.7500              RECHARGE =          79.8516

            TOTAL IN =    13613514.0000              TOTAL IN =       31104.4004

          OUT:                                     OUT:
          ----                                     ----
             STORAGE =     5059159.0000               STORAGE =        1290.8768
       CONSTANT HEAD =           0.0000         CONSTANT HEAD =           0.0000
       RIVER LEAKAGE =     8541593.0000         RIVER LEAKAGE =       29696.1777
            RECHARGE =           0.0000              RECHARGE =           0.0000

           TOTAL OUT =    13600752.0000             TOTAL OUT =       30987.0547

            IN - OUT =       12762.0000              IN - OUT =         117.3457

 PERCENT DISCREPANCY =           0.09     PERCENT DISCREPANCY =           0.38






         TIME SUMMARY AT END OF TIME STEP  217 IN STRESS PERIOD    1
                    SECONDS     MINUTES      HOURS       DAYS        YEARS
                    -----------------------------------------------------------
   TIME STEP LENGTH  86400.      1440.0      24.000      1.0000     2.73785E-03
 STRESS PERIOD TIME 1.87488E+07 3.12480E+05  5208.0      217.00     0.59411    
         TOTAL TIME 1.87488E+07 3.12480E+05  5208.0      217.00     0.59411    
1
 
 SOLVING FOR HEAD 
                                                   Max.-Head-Change                        Max.-Flux-Residual
  Residual-Control   Outer-Iter.   Inner-Iter.     Column Row Layer    Max.-Head-Change    Column Row Layer    Max.-Flux-Residual            L2-New               L2-Old           Solver-Max-Delh
          0                 1           2            25   20     1       0.6593956243E-01      29    3    1      -0.3015715007E+03      0.1748899447E+04      0.8765394558E+01      0.6593956243E-01
          0                 2           2            25   20     1      -0.5694806271E-02      29    3    1       0.3015445414E+02      0.1748629433E+03      0.1748899447E+04     -0.5694806271E-02

    ------------------------------------------------
       NWT REQUIRED            2 OUTER ITERATIONS 
       AND A TOTAL OF          4 INNER ITERATIONS.
    ------------------------------------------------

 OUTPUT CONTROL FOR STRESS PERIOD    1   TIME STEP  218
    SAVE HEAD FOR ALL LAYERS
    SAVE DRAWDOWN FOR ALL LAYERS
    SAVE BUDGET
    PRINT BUDGET
 UBDSV1 SAVING "         STORAGE" ON UNIT   9 AT TIME STEP218, STRESS PERIOD   1
 UBDSV2 SAVING "   CONSTANT HEAD" ON UNIT   9 AT TIME STEP218, STRESS PERIOD   1
 UBDSV1 SAVING "FLOW RIGHT FACE " ON UNIT   9 AT TIME STEP218, STRESS PERIOD   1
 UBDSV1 SAVING "FLOW FRONT FACE " ON UNIT   9 AT TIME STEP218, STRESS PERIOD   1
 UBDSV4 SAVING "   RIVER LEAKAGE" ON UNIT   9 AT TIME STEP218, STRESS PERIOD   1
 UBDSV3 SAVING "        RECHARGE" ON UNIT   9 AT TIME STEP218, STRESS PERIOD   1

 HEAD WILL BE SAVED ON UNIT 5037 AT END OF TIME STEP  218, STRESS PERIOD    1

 DRAWDOWN WILL BE SAVED ON UNIT   38 AT END OF TIME STEP  218, STRESS PERIOD    1
1
  VOLUMETRIC BUDGET FOR ENTIRE MODEL AT END OF TIME STEP  218, STRESS PERIOD   1
  ------------------------------------------------------------------------------

     CUMULATIVE VOLUMES      L**3       RATES FOR THIS TIME STEP      L**3/T
     ------------------                 ------------------------

           IN:                                      IN:
           ---                                      ---
             STORAGE =     9221762.0000               STORAGE =       24793.8652
       CONSTANT HEAD =           0.0000         CONSTANT HEAD =           0.0000
       RIVER LEAKAGE =     1287152.2500         RIVER LEAKAGE =        6186.5425
            RECHARGE =     3135658.7500              RECHARGE =          79.0178

            TOTAL IN =    13644573.0000              TOTAL IN =       31059.4258

          OUT:                                     OUT:
          ----                                     ----
             STORAGE =     5060437.0000               STORAGE =        1277.8633
       CONSTANT HEAD =           0.0000         CONSTANT HEAD =           0.0000
       RIVER LEAKAGE =     8571257.0000         RIVER LEAKAGE =       29664.4004
            RECHARGE =           0.0000              RECHARGE =           0.0000

           TOTAL OUT =    13631694.0000             TOTAL OUT =       30942.2637

            IN - OUT =       12879.0000              IN - OUT =         117.1621

 PERCENT DISCREPANCY =           0.09     PERCENT DISCREPANCY =           0.38






         TIME SUMMARY AT END OF TIME STEP  218 IN STRESS PERIOD    1
                    SECONDS     MINUTES      HOURS       DAYS        YEARS
                    -----------------------------------------------------------
   TIME STEP LENGTH  86400.      1440.0      24.000      1.0000     2.73785E-03
 STRESS PERIOD TIME 1.88352E+07 3.13920E+05  5232.0      218.00     0.59685    
         TOTAL TIME 1.88352E+07 3.13920E+05  5232.0      218.00     0.59685    
1
 
 SOLVING FOR HEAD 
                                                   Max.-Head-Change                        Max.-Flux-Residual
  Residual-Control   Outer-Iter.   Inner-Iter.     Column Row Layer    Max.-Head-Change    Column Row Layer    Max.-Flux-Residual            L2-New               L2-Old           Solver-Max-Delh
          0                 1           2            25   20     1       0.5779809265E-01      36   13    1      -0.6000470764E+03      0.3764520759E+04      0.8742938766E+01      0.5779809265E-01
          0                 2           2             6    3     1      -0.1187861486E-01       6    3    1      -0.1105796509E+03      0.3907419970E+03      0.3764520759E+04     -0.1187861486E-01

    ------------------------------------------------
       NWT REQUIRED            2 OUTER ITERATIONS 
       AND A TOTAL OF          4 INNER ITERATIONS.
    ------------------------------------------------

 OUTPUT CONTROL FOR STRESS PERIOD    1   TIME STEP  219
    SAVE HEAD FOR ALL LAYERS
    SAVE DRAWDOWN FOR ALL LAYERS
    SAVE BUDGET
    PRINT BUDGET
 UBDSV1 SAVING "         STORAGE" ON UNIT   9 AT TIME STEP219, STRESS PERIOD   1
 UBDSV2 SAVING "   CONSTANT HEAD" ON UNIT   9 AT TIME STEP219, STRESS PERIOD   1
 UBDSV1 SAVING "FLOW RIGHT FACE " ON UNIT   9 AT TIME STEP219, STRESS PERIOD   1
 UBDSV1 SAVING "FLOW FRONT FACE " ON UNIT   9 AT TIME STEP219, STRESS PERIOD   1
 UBDSV4 SAVING "   RIVER LEAKAGE" ON UNIT   9 AT TIME STEP219, STRESS PERIOD   1
 UBDSV3 SAVING "        RECHARGE" ON UNIT   9 AT TIME STEP219, STRESS PERIOD   1

 HEAD WILL BE SAVED ON UNIT 5037 AT END OF TIME STEP  219, STRESS PERIOD    1

 DRAWDOWN WILL BE SAVED ON UNIT   38 AT END OF TIME STEP  219, STRESS PERIOD    1
1
  VOLUMETRIC BUDGET FOR ENTIRE MODEL AT END OF TIME STEP  219, STRESS PERIOD   1
  ------------------------------------------------------------------------------

     CUMULATIVE VOLUMES      L**3       RATES FOR THIS TIME STEP      L**3/T
     ------------------                 ------------------------

           IN:                                      IN:
           ---                                      ---
             STORAGE =     9256290.0000               STORAGE =       34528.4609
       CONSTANT HEAD =           0.0000         CONSTANT HEAD =           0.0000
       RIVER LEAKAGE =     1291014.6250         RIVER LEAKAGE =        3862.4143
            RECHARGE =     3135737.0000              RECHARGE =          78.1986

            TOTAL IN =    13683042.0000              TOTAL IN =       38469.0742

          OUT:                                     OUT:
          ----                                     ----
             STORAGE =     5061700.0000               STORAGE =        1262.8301
       CONSTANT HEAD =           0.0000         CONSTANT HEAD =           0.0000
       RIVER LEAKAGE =     8608151.0000         RIVER LEAKAGE =       36893.7070
            RECHARGE =           0.0000              RECHARGE =           0.0000

           TOTAL OUT =    13669851.0000             TOTAL OUT =       38156.5391

            IN - OUT =       13191.0000              IN - OUT =         312.5352

 PERCENT DISCREPANCY =           0.10     PERCENT DISCREPANCY =           0.82






         TIME SUMMARY AT END OF TIME STEP  219 IN STRESS PERIOD    1
                    SECONDS     MINUTES      HOURS       DAYS        YEARS
                    -----------------------------------------------------------
   TIME STEP LENGTH  86400.      1440.0      24.000      1.0000     2.73785E-03
 STRESS PERIOD TIME 1.89216E+07 3.15360E+05  5256.0      219.00     0.59959    
         TOTAL TIME 1.89216E+07 3.15360E+05  5256.0      219.00     0.59959    
1
 
 SOLVING FOR HEAD 
                                                   Max.-Head-Change                        Max.-Flux-Residual
  Residual-Control   Outer-Iter.   Inner-Iter.     Column Row Layer    Max.-Head-Change    Column Row Layer    Max.-Flux-Residual            L2-New               L2-Old           Solver-Max-Delh
          0                 1           2            25   20     1       0.5114064833E-01      36   13    1       0.5166211862E+03      0.3066043133E+04      0.2185225538E+02      0.5114064833E-01
          0                 2           2            38   15     1      -0.2116291240E-01      38   15    1      -0.1565455140E+04      0.1595000937E+04      0.3066043133E+04     -0.2116291240E-01

    ------------------------------------------------
       NWT REQUIRED            2 OUTER ITERATIONS 
       AND A TOTAL OF          4 INNER ITERATIONS.
    ------------------------------------------------

 OUTPUT CONTROL FOR STRESS PERIOD    1   TIME STEP  220
    SAVE HEAD FOR ALL LAYERS
    SAVE DRAWDOWN FOR ALL LAYERS
    SAVE BUDGET
    PRINT BUDGET
 UBDSV1 SAVING "         STORAGE" ON UNIT   9 AT TIME STEP220, STRESS PERIOD   1
 UBDSV2 SAVING "   CONSTANT HEAD" ON UNIT   9 AT TIME STEP220, STRESS PERIOD   1
 UBDSV1 SAVING "FLOW RIGHT FACE " ON UNIT   9 AT TIME STEP220, STRESS PERIOD   1
 UBDSV1 SAVING "FLOW FRONT FACE " ON UNIT   9 AT TIME STEP220, STRESS PERIOD   1
 UBDSV4 SAVING "   RIVER LEAKAGE" ON UNIT   9 AT TIME STEP220, STRESS PERIOD   1
 UBDSV3 SAVING "        RECHARGE" ON UNIT   9 AT TIME STEP220, STRESS PERIOD   1

 HEAD WILL BE SAVED ON UNIT 5037 AT END OF TIME STEP  220, STRESS PERIOD    1

 DRAWDOWN WILL BE SAVED ON UNIT   38 AT END OF TIME STEP  220, STRESS PERIOD    1
1
  VOLUMETRIC BUDGET FOR ENTIRE MODEL AT END OF TIME STEP  220, STRESS PERIOD   1
  ------------------------------------------------------------------------------

     CUMULATIVE VOLUMES      L**3       RATES FOR THIS TIME STEP      L**3/T
     ------------------                 ------------------------

           IN:                                      IN:
           ---                                      ---
             STORAGE =     9280971.0000               STORAGE =       24680.6523
       CONSTANT HEAD =           0.0000         CONSTANT HEAD =           0.0000
       RIVER LEAKAGE =     1298389.3750         RIVER LEAKAGE =        7374.7051
            RECHARGE =     3135814.5000              RECHARGE =          77.3936

            TOTAL IN =    13715174.0000              TOTAL IN =       32132.7520

          OUT:                                     OUT:
          ----                                     ----
             STORAGE =     5069469.5000               STORAGE =        7769.6230
       CONSTANT HEAD =           0.0000         CONSTANT HEAD =           0.0000
       RIVER LEAKAGE =     8632612.0000         RIVER LEAKAGE =       24460.6992
            RECHARGE =           0.0000              RECHARGE =           0.0000

           TOTAL OUT =    13702082.0000             TOTAL OUT =       32230.3223

            IN - OUT =       13092.0000              IN - OUT =         -97.5703

 PERCENT DISCREPANCY =           0.10     PERCENT DISCREPANCY =          -0.30






         TIME SUMMARY AT END OF TIME STEP  220 IN STRESS PERIOD    1
                    SECONDS     MINUTES      HOURS       DAYS        YEARS
                    -----------------------------------------------------------
   TIME STEP LENGTH  86400.      1440.0      24.000      1.0000     2.73785E-03
 STRESS PERIOD TIME 1.90080E+07 3.16800E+05  5280.0      220.00     0.60233    
         TOTAL TIME 1.90080E+07 3.16800E+05  5280.0      220.00     0.60233    
1
 
 SOLVING FOR HEAD 
                                                   Max.-Head-Change                        Max.-Flux-Residual
  Residual-Control   Outer-Iter.   Inner-Iter.     Column Row Layer    Max.-Head-Change    Column Row Layer    Max.-Flux-Residual            L2-New               L2-Old           Solver-Max-Delh
          0                 1           2            25   20     1       0.4558333793E-01      36   13    1      -0.5282898542E+03      0.3278862780E+04      0.7975634905E+02      0.4558333793E-01
          0                 2           2            25   20     1      -0.3936760940E-02      36   13    1       0.5282827889E+02      0.3262627849E+03      0.3278862780E+04     -0.3936760940E-02

    ------------------------------------------------
       NWT REQUIRED            2 OUTER ITERATIONS 
       AND A TOTAL OF          4 INNER ITERATIONS.
    ------------------------------------------------

 OUTPUT CONTROL FOR STRESS PERIOD    1   TIME STEP  221
    SAVE HEAD FOR ALL LAYERS
    SAVE DRAWDOWN FOR ALL LAYERS
    SAVE BUDGET
    PRINT BUDGET
 UBDSV1 SAVING "         STORAGE" ON UNIT   9 AT TIME STEP221, STRESS PERIOD   1
 UBDSV2 SAVING "   CONSTANT HEAD" ON UNIT   9 AT TIME STEP221, STRESS PERIOD   1
 UBDSV1 SAVING "FLOW RIGHT FACE " ON UNIT   9 AT TIME STEP221, STRESS PERIOD   1
 UBDSV1 SAVING "FLOW FRONT FACE " ON UNIT   9 AT TIME STEP221, STRESS PERIOD   1
 UBDSV4 SAVING "   RIVER LEAKAGE" ON UNIT   9 AT TIME STEP221, STRESS PERIOD   1
 UBDSV3 SAVING "        RECHARGE" ON UNIT   9 AT TIME STEP221, STRESS PERIOD   1

 HEAD WILL BE SAVED ON UNIT 5037 AT END OF TIME STEP  221, STRESS PERIOD    1

 DRAWDOWN WILL BE SAVED ON UNIT   38 AT END OF TIME STEP  221, STRESS PERIOD    1
1
  VOLUMETRIC BUDGET FOR ENTIRE MODEL AT END OF TIME STEP  221, STRESS PERIOD   1
  ------------------------------------------------------------------------------

     CUMULATIVE VOLUMES      L**3       RATES FOR THIS TIME STEP      L**3/T
     ------------------                 ------------------------

           IN:                                      IN:
           ---                                      ---
             STORAGE =     9313861.0000               STORAGE =       32889.5664
       CONSTANT HEAD =           0.0000         CONSTANT HEAD =           0.0000
       RIVER LEAKAGE =     1302395.1250         RIVER LEAKAGE =        4005.7168
            RECHARGE =     3135891.0000              RECHARGE =          76.6026

            TOTAL IN =    13752147.0000              TOTAL IN =       36971.8828

          OUT:                                     OUT:
          ----                                     ----
             STORAGE =     5070706.5000               STORAGE =        1236.8842
       CONSTANT HEAD =           0.0000         CONSTANT HEAD =           0.0000
       RIVER LEAKAGE =     8668078.0000         RIVER LEAKAGE =       35466.2734
            RECHARGE =           0.0000              RECHARGE =           0.0000

           TOTAL OUT =    13738784.0000             TOTAL OUT =       36703.1562

            IN - OUT =       13363.0000              IN - OUT =         268.7266

 PERCENT DISCREPANCY =           0.10     PERCENT DISCREPANCY =           0.73






         TIME SUMMARY AT END OF TIME STEP  221 IN STRESS PERIOD    1
                    SECONDS     MINUTES      HOURS       DAYS        YEARS
                    -----------------------------------------------------------
   TIME STEP LENGTH  86400.      1440.0      24.000      1.0000     2.73785E-03
 STRESS PERIOD TIME 1.90944E+07 3.18240E+05  5304.0      221.00     0.60507    
         TOTAL TIME 1.90944E+07 3.18240E+05  5304.0      221.00     0.60507    
1
 
 SOLVING FOR HEAD 
                                                   Max.-Head-Change                        Max.-Flux-Residual
  Residual-Control   Outer-Iter.   Inner-Iter.     Column Row Layer    Max.-Head-Change    Column Row Layer    Max.-Flux-Residual            L2-New               L2-Old           Solver-Max-Delh
          0                 1           2            25   20     1       0.4089313920E-01      36   13    1       0.5265884604E+03      0.3170094026E+04      0.1631306667E+02      0.4089313920E-01
          0                 2           2            38   15     1      -0.2145252974E-01      38   15    1      -0.1586877827E+04      0.1618038879E+04      0.3170094026E+04     -0.2145252974E-01

    ------------------------------------------------
       NWT REQUIRED            2 OUTER ITERATIONS 
       AND A TOTAL OF          4 INNER ITERATIONS.
    ------------------------------------------------

 OUTPUT CONTROL FOR STRESS PERIOD    1   TIME STEP  222
    SAVE HEAD FOR ALL LAYERS
    SAVE DRAWDOWN FOR ALL LAYERS
    SAVE BUDGET
    PRINT BUDGET
 UBDSV1 SAVING "         STORAGE" ON UNIT   9 AT TIME STEP222, STRESS PERIOD   1
 UBDSV2 SAVING "   CONSTANT HEAD" ON UNIT   9 AT TIME STEP222, STRESS PERIOD   1
 UBDSV1 SAVING "FLOW RIGHT FACE " ON UNIT   9 AT TIME STEP222, STRESS PERIOD   1
 UBDSV1 SAVING "FLOW FRONT FACE " ON UNIT   9 AT TIME STEP222, STRESS PERIOD   1
 UBDSV4 SAVING "   RIVER LEAKAGE" ON UNIT   9 AT TIME STEP222, STRESS PERIOD   1
 UBDSV3 SAVING "        RECHARGE" ON UNIT   9 AT TIME STEP222, STRESS PERIOD   1

 HEAD WILL BE SAVED ON UNIT 5037 AT END OF TIME STEP  222, STRESS PERIOD    1

 DRAWDOWN WILL BE SAVED ON UNIT   38 AT END OF TIME STEP  222, STRESS PERIOD    1
1
  VOLUMETRIC BUDGET FOR ENTIRE MODEL AT END OF TIME STEP  222, STRESS PERIOD   1
  ------------------------------------------------------------------------------

     CUMULATIVE VOLUMES      L**3       RATES FOR THIS TIME STEP      L**3/T
     ------------------                 ------------------------

           IN:                                      IN:
           ---                                      ---
             STORAGE =     9338441.0000               STORAGE =       24580.3379
       CONSTANT HEAD =           0.0000         CONSTANT HEAD =           0.0000
       RIVER LEAKAGE =     1309862.5000         RIVER LEAKAGE =        7467.3979
            RECHARGE =     3135966.7500              RECHARGE =          75.8251

            TOTAL IN =    13784271.0000              TOTAL IN =       32123.5605

          OUT:                                     OUT:
          ----                                     ----
             STORAGE =     5078826.5000               STORAGE =        8120.0303
       CONSTANT HEAD =           0.0000         CONSTANT HEAD =           0.0000
       RIVER LEAKAGE =     8692188.0000         RIVER LEAKAGE =       24110.0195
            RECHARGE =           0.0000              RECHARGE =           0.0000

           TOTAL OUT =    13771014.0000             TOTAL OUT =       32230.0508

            IN - OUT =       13257.0000              IN - OUT =        -106.4902

 PERCENT DISCREPANCY =           0.10     PERCENT DISCREPANCY =          -0.33






         TIME SUMMARY AT END OF TIME STEP  222 IN STRESS PERIOD    1
                    SECONDS     MINUTES      HOURS       DAYS        YEARS
                    -----------------------------------------------------------
   TIME STEP LENGTH  86400.      1440.0      24.000      1.0000     2.73785E-03
 STRESS PERIOD TIME 1.91808E+07 3.19680E+05  5328.0      222.00     0.60780    
         TOTAL TIME 1.91808E+07 3.19680E+05  5328.0      222.00     0.60780    
1
 
 SOLVING FOR HEAD 
                                                   Max.-Head-Change                        Max.-Flux-Residual
  Residual-Control   Outer-Iter.   Inner-Iter.     Column Row Layer    Max.-Head-Change    Column Row Layer    Max.-Flux-Residual            L2-New               L2-Old           Solver-Max-Delh
          0                 1           2            24   19     1       0.3823651921E-01      36   13    1      -0.5269043737E+03      0.3246886638E+04      0.8090845779E+02      0.3823651921E-01
          0                 2           2            24   19     1      -0.3302248569E-02      36   13    1       0.5268973234E+02      0.3230066366E+03      0.3246886638E+04     -0.3302248569E-02

    ------------------------------------------------
       NWT REQUIRED            2 OUTER ITERATIONS 
       AND A TOTAL OF          4 INNER ITERATIONS.
    ------------------------------------------------

 OUTPUT CONTROL FOR STRESS PERIOD    1   TIME STEP  223
    SAVE HEAD FOR ALL LAYERS
    SAVE DRAWDOWN FOR ALL LAYERS
    SAVE BUDGET
    PRINT BUDGET
 UBDSV1 SAVING "         STORAGE" ON UNIT   9 AT TIME STEP223, STRESS PERIOD   1
 UBDSV2 SAVING "   CONSTANT HEAD" ON UNIT   9 AT TIME STEP223, STRESS PERIOD   1
 UBDSV1 SAVING "FLOW RIGHT FACE " ON UNIT   9 AT TIME STEP223, STRESS PERIOD   1
 UBDSV1 SAVING "FLOW FRONT FACE " ON UNIT   9 AT TIME STEP223, STRESS PERIOD   1
 UBDSV4 SAVING "   RIVER LEAKAGE" ON UNIT   9 AT TIME STEP223, STRESS PERIOD   1
 UBDSV3 SAVING "        RECHARGE" ON UNIT   9 AT TIME STEP223, STRESS PERIOD   1

 HEAD WILL BE SAVED ON UNIT 5037 AT END OF TIME STEP  223, STRESS PERIOD    1

 DRAWDOWN WILL BE SAVED ON UNIT   38 AT END OF TIME STEP  223, STRESS PERIOD    1
1
  VOLUMETRIC BUDGET FOR ENTIRE MODEL AT END OF TIME STEP  223, STRESS PERIOD   1
  ------------------------------------------------------------------------------

     CUMULATIVE VOLUMES      L**3       RATES FOR THIS TIME STEP      L**3/T
     ------------------                 ------------------------

           IN:                                      IN:
           ---                                      ---
             STORAGE =     9371132.0000               STORAGE =       32691.1758
       CONSTANT HEAD =           0.0000         CONSTANT HEAD =           0.0000
       RIVER LEAKAGE =     1313886.0000         RIVER LEAKAGE =        4023.5569
            RECHARGE =     3136041.7500              RECHARGE =          75.0609

            TOTAL IN =    13821060.0000              TOTAL IN =       36789.7969

          OUT:                                     OUT:
          ----                                     ----
             STORAGE =     5080038.5000               STORAGE =        1212.0576
       CONSTANT HEAD =           0.0000         CONSTANT HEAD =           0.0000
       RIVER LEAKAGE =     8727499.0000         RIVER LEAKAGE =       35311.2539
            RECHARGE =           0.0000              RECHARGE =           0.0000

           TOTAL OUT =    13807538.0000             TOTAL OUT =       36523.3125

            IN - OUT =       13522.0000              IN - OUT =         266.4844

 PERCENT DISCREPANCY =           0.10     PERCENT DISCREPANCY =           0.73






         TIME SUMMARY AT END OF TIME STEP  223 IN STRESS PERIOD    1
                    SECONDS     MINUTES      HOURS       DAYS        YEARS
                    -----------------------------------------------------------
   TIME STEP LENGTH  86400.      1440.0      24.000      1.0000     2.73785E-03
 STRESS PERIOD TIME 1.92672E+07 3.21120E+05  5352.0      223.00     0.61054    
         TOTAL TIME 1.92672E+07 3.21120E+05  5352.0      223.00     0.61054    
1
 
 SOLVING FOR HEAD 
                                                   Max.-Head-Change                        Max.-Flux-Residual
  Residual-Control   Outer-Iter.   Inner-Iter.     Column Row Layer    Max.-Head-Change    Column Row Layer    Max.-Flux-Residual            L2-New               L2-Old           Solver-Max-Delh
          0                 1           2            24   19     1       0.3575810077E-01      36   13    1       0.5267812411E+03      0.3172030613E+04      0.1615026884E+02      0.3575810077E-01
          0                 2           2            38   15     1      -0.2147718347E-01      38   15    1      -0.1588701343E+04      0.1620374966E+04      0.3172030613E+04     -0.2147718347E-01

    ------------------------------------------------
       NWT REQUIRED            2 OUTER ITERATIONS 
       AND A TOTAL OF          4 INNER ITERATIONS.
    ------------------------------------------------

 OUTPUT CONTROL FOR STRESS PERIOD    1   TIME STEP  224
    SAVE HEAD FOR ALL LAYERS
    SAVE DRAWDOWN FOR ALL LAYERS
    SAVE BUDGET
    PRINT BUDGET
 UBDSV1 SAVING "         STORAGE" ON UNIT   9 AT TIME STEP224, STRESS PERIOD   1
 UBDSV2 SAVING "   CONSTANT HEAD" ON UNIT   9 AT TIME STEP224, STRESS PERIOD   1
 UBDSV1 SAVING "FLOW RIGHT FACE " ON UNIT   9 AT TIME STEP224, STRESS PERIOD   1
 UBDSV1 SAVING "FLOW FRONT FACE " ON UNIT   9 AT TIME STEP224, STRESS PERIOD   1
 UBDSV4 SAVING "   RIVER LEAKAGE" ON UNIT   9 AT TIME STEP224, STRESS PERIOD   1
 UBDSV3 SAVING "        RECHARGE" ON UNIT   9 AT TIME STEP224, STRESS PERIOD   1

 HEAD WILL BE SAVED ON UNIT 5037 AT END OF TIME STEP  224, STRESS PERIOD    1

 DRAWDOWN WILL BE SAVED ON UNIT   38 AT END OF TIME STEP  224, STRESS PERIOD    1
1
  VOLUMETRIC BUDGET FOR ENTIRE MODEL AT END OF TIME STEP  224, STRESS PERIOD   1
  ------------------------------------------------------------------------------

     CUMULATIVE VOLUMES      L**3       RATES FOR THIS TIME STEP      L**3/T
     ------------------                 ------------------------

           IN:                                      IN:
           ---                                      ---
             STORAGE =     9395617.0000               STORAGE =       24485.3691
       CONSTANT HEAD =           0.0000         CONSTANT HEAD =           0.0000
       RIVER LEAKAGE =     1321369.8750         RIVER LEAKAGE =        7483.8936
            RECHARGE =     3136116.0000              RECHARGE =          74.3097

            TOTAL IN =    13853103.0000              TOTAL IN =       32043.5723

          OUT:                                     OUT:
          ----                                     ----
             STORAGE =     5088165.0000               STORAGE =        8126.4419
       CONSTANT HEAD =           0.0000         CONSTANT HEAD =           0.0000
       RIVER LEAKAGE =     8751522.0000         RIVER LEAKAGE =       24022.5469
            RECHARGE =           0.0000              RECHARGE =           0.0000

           TOTAL OUT =    13839687.0000             TOTAL OUT =       32148.9883

            IN - OUT =       13416.0000              IN - OUT =        -105.4160

 PERCENT DISCREPANCY =           0.10     PERCENT DISCREPANCY =          -0.33






         TIME SUMMARY AT END OF TIME STEP  224 IN STRESS PERIOD    1
                    SECONDS     MINUTES      HOURS       DAYS        YEARS
                    -----------------------------------------------------------
   TIME STEP LENGTH  86400.      1440.0      24.000      1.0000     2.73785E-03
 STRESS PERIOD TIME 1.93536E+07 3.22560E+05  5376.0      224.00     0.61328    
         TOTAL TIME 1.93536E+07 3.22560E+05  5376.0      224.00     0.61328    
1
 
 SOLVING FOR HEAD 
                                                   Max.-Head-Change                        Max.-Flux-Residual
  Residual-Control   Outer-Iter.   Inner-Iter.     Column Row Layer    Max.-Head-Change    Column Row Layer    Max.-Flux-Residual            L2-New               L2-Old           Solver-Max-Delh
          0                 1           2            32   19     1      -0.3550486242E-01      36   13    1      -0.5268772373E+03      0.3239397990E+04      0.8102529177E+02     -0.3550486242E-01
          0                 2           2            32   19     1       0.3065084723E-02      36   13    1       0.5268701689E+02      0.3222482028E+03      0.3239397990E+04      0.3065084723E-02

    ------------------------------------------------
       NWT REQUIRED            2 OUTER ITERATIONS 
       AND A TOTAL OF          4 INNER ITERATIONS.
    ------------------------------------------------

 OUTPUT CONTROL FOR STRESS PERIOD    1   TIME STEP  225
    SAVE HEAD FOR ALL LAYERS
    SAVE DRAWDOWN FOR ALL LAYERS
    SAVE BUDGET
    PRINT BUDGET
 UBDSV1 SAVING "         STORAGE" ON UNIT   9 AT TIME STEP225, STRESS PERIOD   1
 UBDSV2 SAVING "   CONSTANT HEAD" ON UNIT   9 AT TIME STEP225, STRESS PERIOD   1
 UBDSV1 SAVING "FLOW RIGHT FACE " ON UNIT   9 AT TIME STEP225, STRESS PERIOD   1
 UBDSV1 SAVING "FLOW FRONT FACE " ON UNIT   9 AT TIME STEP225, STRESS PERIOD   1
 UBDSV4 SAVING "   RIVER LEAKAGE" ON UNIT   9 AT TIME STEP225, STRESS PERIOD   1
 UBDSV3 SAVING "        RECHARGE" ON UNIT   9 AT TIME STEP225, STRESS PERIOD   1

 HEAD WILL BE SAVED ON UNIT 5037 AT END OF TIME STEP  225, STRESS PERIOD    1

 DRAWDOWN WILL BE SAVED ON UNIT   38 AT END OF TIME STEP  225, STRESS PERIOD    1
1
  VOLUMETRIC BUDGET FOR ENTIRE MODEL AT END OF TIME STEP  225, STRESS PERIOD   1
  ------------------------------------------------------------------------------

     CUMULATIVE VOLUMES      L**3       RATES FOR THIS TIME STEP      L**3/T
     ------------------                 ------------------------

           IN:                                      IN:
           ---                                      ---
             STORAGE =     9428199.0000               STORAGE =       32582.0176
       CONSTANT HEAD =           0.0000         CONSTANT HEAD =           0.0000
       RIVER LEAKAGE =     1325402.5000         RIVER LEAKAGE =        4032.6025
            RECHARGE =     3136189.5000              RECHARGE =          73.5712

            TOTAL IN =    13889792.0000              TOTAL IN =       36688.1914

          OUT:                                     OUT:
          ----                                     ----
             STORAGE =     5089353.5000               STORAGE =        1188.5933
       CONSTANT HEAD =           0.0000         CONSTANT HEAD =           0.0000
       RIVER LEAKAGE =     8786756.0000         RIVER LEAKAGE =       35233.6328
            RECHARGE =           0.0000              RECHARGE =           0.0000

           TOTAL OUT =    13876110.0000             TOTAL OUT =       36422.2266

            IN - OUT =       13682.0000              IN - OUT =         265.9648

 PERCENT DISCREPANCY =           0.10     PERCENT DISCREPANCY =           0.73






         TIME SUMMARY AT END OF TIME STEP  225 IN STRESS PERIOD    1
                    SECONDS     MINUTES      HOURS       DAYS        YEARS
                    -----------------------------------------------------------
   TIME STEP LENGTH  86400.      1440.0      24.000      1.0000     2.73785E-03
 STRESS PERIOD TIME 1.94400E+07 3.24000E+05  5400.0      225.00     0.61602    
         TOTAL TIME 1.94400E+07 3.24000E+05  5400.0      225.00     0.61602    
1
 
 SOLVING FOR HEAD 
                                                   Max.-Head-Change                        Max.-Flux-Residual
  Residual-Control   Outer-Iter.   Inner-Iter.     Column Row Layer    Max.-Head-Change    Column Row Layer    Max.-Flux-Residual            L2-New               L2-Old           Solver-Max-Delh
          0                 1           2            24   19     1       0.3138589462E-01      36   13    1       0.5267858352E+03      0.3167812519E+04      0.1611235013E+02      0.3138589462E-01
          0                 2           2            38   15     1      -0.2145293340E-01      38   15    1      -0.1586907411E+04      0.1618023888E+04      0.3167812519E+04     -0.2145293340E-01

    ------------------------------------------------
       NWT REQUIRED            2 OUTER ITERATIONS 
       AND A TOTAL OF          4 INNER ITERATIONS.
    ------------------------------------------------

 OUTPUT CONTROL FOR STRESS PERIOD    1   TIME STEP  226
    SAVE HEAD FOR ALL LAYERS
    SAVE DRAWDOWN FOR ALL LAYERS
    SAVE BUDGET
    PRINT BUDGET
 UBDSV1 SAVING "         STORAGE" ON UNIT   9 AT TIME STEP226, STRESS PERIOD   1
 UBDSV2 SAVING "   CONSTANT HEAD" ON UNIT   9 AT TIME STEP226, STRESS PERIOD   1
 UBDSV1 SAVING "FLOW RIGHT FACE " ON UNIT   9 AT TIME STEP226, STRESS PERIOD   1
 UBDSV1 SAVING "FLOW FRONT FACE " ON UNIT   9 AT TIME STEP226, STRESS PERIOD   1
 UBDSV4 SAVING "   RIVER LEAKAGE" ON UNIT   9 AT TIME STEP226, STRESS PERIOD   1
 UBDSV3 SAVING "        RECHARGE" ON UNIT   9 AT TIME STEP226, STRESS PERIOD   1

 HEAD WILL BE SAVED ON UNIT 5037 AT END OF TIME STEP  226, STRESS PERIOD    1

 DRAWDOWN WILL BE SAVED ON UNIT   38 AT END OF TIME STEP  226, STRESS PERIOD    1
1
  VOLUMETRIC BUDGET FOR ENTIRE MODEL AT END OF TIME STEP  226, STRESS PERIOD   1
  ------------------------------------------------------------------------------

     CUMULATIVE VOLUMES      L**3       RATES FOR THIS TIME STEP      L**3/T
     ------------------                 ------------------------

           IN:                                      IN:
           ---                                      ---
             STORAGE =     9452587.0000               STORAGE =       24387.9160
       CONSTANT HEAD =           0.0000         CONSTANT HEAD =           0.0000
       RIVER LEAKAGE =     1332898.5000         RIVER LEAKAGE =        7495.9927
            RECHARGE =     3136262.2500              RECHARGE =          72.8452

            TOTAL IN =    13921748.0000              TOTAL IN =       31956.7539

          OUT:                                     OUT:
          ----                                     ----
             STORAGE =     5097465.5000               STORAGE =        8111.9824
       CONSTANT HEAD =           0.0000         CONSTANT HEAD =           0.0000
       RIVER LEAKAGE =     8810709.0000         RIVER LEAKAGE =       23952.5449
            RECHARGE =           0.0000              RECHARGE =           0.0000

           TOTAL OUT =    13908174.0000             TOTAL OUT =       32064.5273

            IN - OUT =       13574.0000              IN - OUT =        -107.7734

 PERCENT DISCREPANCY =           0.10     PERCENT DISCREPANCY =          -0.34






         TIME SUMMARY AT END OF TIME STEP  226 IN STRESS PERIOD    1
                    SECONDS     MINUTES      HOURS       DAYS        YEARS
                    -----------------------------------------------------------
   TIME STEP LENGTH  86400.      1440.0      24.000      1.0000     2.73785E-03
 STRESS PERIOD TIME 1.95264E+07 3.25440E+05  5424.0      226.00     0.61875    
         TOTAL TIME 1.95264E+07 3.25440E+05  5424.0      226.00     0.61875    
1
 
 SOLVING FOR HEAD 
                                                   Max.-Head-Change                        Max.-Flux-Residual
  Residual-Control   Outer-Iter.   Inner-Iter.     Column Row Layer    Max.-Head-Change    Column Row Layer    Max.-Flux-Residual            L2-New               L2-Old           Solver-Max-Delh
          0                 1           2            32   19     1      -0.3504749156E-01      36   13    1      -0.5268761958E+03      0.3233476674E+04      0.8090774214E+02     -0.3504749156E-01
          0                 2           2            32   19     1       0.3025617254E-02      36   13    1       0.5268691097E+02      0.3216553228E+03      0.3233476674E+04      0.3025617254E-02

    ------------------------------------------------
       NWT REQUIRED            2 OUTER ITERATIONS 
       AND A TOTAL OF          4 INNER ITERATIONS.
    ------------------------------------------------

 OUTPUT CONTROL FOR STRESS PERIOD    1   TIME STEP  227
    SAVE HEAD FOR ALL LAYERS
    SAVE DRAWDOWN FOR ALL LAYERS
    SAVE BUDGET
    PRINT BUDGET
 UBDSV1 SAVING "         STORAGE" ON UNIT   9 AT TIME STEP227, STRESS PERIOD   1
 UBDSV2 SAVING "   CONSTANT HEAD" ON UNIT   9 AT TIME STEP227, STRESS PERIOD   1
 UBDSV1 SAVING "FLOW RIGHT FACE " ON UNIT   9 AT TIME STEP227, STRESS PERIOD   1
 UBDSV1 SAVING "FLOW FRONT FACE " ON UNIT   9 AT TIME STEP227, STRESS PERIOD   1
 UBDSV4 SAVING "   RIVER LEAKAGE" ON UNIT   9 AT TIME STEP227, STRESS PERIOD   1
 UBDSV3 SAVING "        RECHARGE" ON UNIT   9 AT TIME STEP227, STRESS PERIOD   1

 HEAD WILL BE SAVED ON UNIT 5037 AT END OF TIME STEP  227, STRESS PERIOD    1

 DRAWDOWN WILL BE SAVED ON UNIT   38 AT END OF TIME STEP  227, STRESS PERIOD    1
1
  VOLUMETRIC BUDGET FOR ENTIRE MODEL AT END OF TIME STEP  227, STRESS PERIOD   1
  ------------------------------------------------------------------------------

     CUMULATIVE VOLUMES      L**3       RATES FOR THIS TIME STEP      L**3/T
     ------------------                 ------------------------

           IN:                                      IN:
           ---                                      ---
             STORAGE =     9485067.0000               STORAGE =       32480.2441
       CONSTANT HEAD =           0.0000         CONSTANT HEAD =           0.0000
       RIVER LEAKAGE =     1336939.5000         RIVER LEAKAGE =        4041.0481
            RECHARGE =     3136334.5000              RECHARGE =          72.1313

            TOTAL IN =    13958340.0000              TOTAL IN =       36593.4258

          OUT:                                     OUT:
          ----                                     ----
             STORAGE =     5098631.5000               STORAGE =        1165.9716
       CONSTANT HEAD =           0.0000         CONSTANT HEAD =           0.0000
       RIVER LEAKAGE =     8845871.0000         RIVER LEAKAGE =       35161.8945
            RECHARGE =           0.0000              RECHARGE =           0.0000

           TOTAL OUT =    13944502.0000             TOTAL OUT =       36327.8672

            IN - OUT =       13838.0000              IN - OUT =         265.5586

 PERCENT DISCREPANCY =           0.10     PERCENT DISCREPANCY =           0.73






         TIME SUMMARY AT END OF TIME STEP  227 IN STRESS PERIOD    1
                    SECONDS     MINUTES      HOURS       DAYS        YEARS
                    -----------------------------------------------------------
   TIME STEP LENGTH  86400.      1440.0      24.000      1.0000     2.73785E-03
 STRESS PERIOD TIME 1.96128E+07 3.26880E+05  5448.0      227.00     0.62149    
         TOTAL TIME 1.96128E+07 3.26880E+05  5448.0      227.00     0.62149    
1
 
 SOLVING FOR HEAD 
                                                   Max.-Head-Change                        Max.-Flux-Residual
  Residual-Control   Outer-Iter.   Inner-Iter.     Column Row Layer    Max.-Head-Change    Column Row Layer    Max.-Flux-Residual            L2-New               L2-Old           Solver-Max-Delh
          0                 1           2            24   19     1       0.2761726309E-01      36   13    1       0.5267858583E+03      0.3163269419E+04      0.1608270551E+02      0.2761726309E-01
          0                 2           2            38   15     1      -0.2141937524E-01      38   15    1      -0.1584424964E+04      0.1615500448E+04      0.3163269419E+04     -0.2141937524E-01

    ------------------------------------------------
       NWT REQUIRED            2 OUTER ITERATIONS 
       AND A TOTAL OF          4 INNER ITERATIONS.
    ------------------------------------------------

 OUTPUT CONTROL FOR STRESS PERIOD    1   TIME STEP  228
    SAVE HEAD FOR ALL LAYERS
    SAVE DRAWDOWN FOR ALL LAYERS
    SAVE BUDGET
    PRINT BUDGET
 UBDSV1 SAVING "         STORAGE" ON UNIT   9 AT TIME STEP228, STRESS PERIOD   1
 UBDSV2 SAVING "   CONSTANT HEAD" ON UNIT   9 AT TIME STEP228, STRESS PERIOD   1
 UBDSV1 SAVING "FLOW RIGHT FACE " ON UNIT   9 AT TIME STEP228, STRESS PERIOD   1
 UBDSV1 SAVING "FLOW FRONT FACE " ON UNIT   9 AT TIME STEP228, STRESS PERIOD   1
 UBDSV4 SAVING "   RIVER LEAKAGE" ON UNIT   9 AT TIME STEP228, STRESS PERIOD   1
 UBDSV3 SAVING "        RECHARGE" ON UNIT   9 AT TIME STEP228, STRESS PERIOD   1

 HEAD WILL BE SAVED ON UNIT 5037 AT END OF TIME STEP  228, STRESS PERIOD    1

 DRAWDOWN WILL BE SAVED ON UNIT   38 AT END OF TIME STEP  228, STRESS PERIOD    1
1
  VOLUMETRIC BUDGET FOR ENTIRE MODEL AT END OF TIME STEP  228, STRESS PERIOD   1
  ------------------------------------------------------------------------------

     CUMULATIVE VOLUMES      L**3       RATES FOR THIS TIME STEP      L**3/T
     ------------------                 ------------------------

           IN:                                      IN:
           ---                                      ---
             STORAGE =     9509361.0000               STORAGE =       24293.6953
       CONSTANT HEAD =           0.0000         CONSTANT HEAD =           0.0000
       RIVER LEAKAGE =     1344447.2500         RIVER LEAKAGE =        7507.7808
            RECHARGE =     3136406.0000              RECHARGE =          71.4292

            TOTAL IN =    13990214.0000              TOTAL IN =       31872.9062

          OUT:                                     OUT:
          ----                                     ----
             STORAGE =     5106728.0000               STORAGE =        8096.5205
       CONSTANT HEAD =           0.0000         CONSTANT HEAD =           0.0000
       RIVER LEAKAGE =     8869755.0000         RIVER LEAKAGE =       23884.4297
            RECHARGE =           0.0000              RECHARGE =           0.0000

           TOTAL OUT =    13976483.0000             TOTAL OUT =       31980.9492

            IN - OUT =       13731.0000              IN - OUT =        -108.0430

 PERCENT DISCREPANCY =           0.10     PERCENT DISCREPANCY =          -0.34






         TIME SUMMARY AT END OF TIME STEP  228 IN STRESS PERIOD    1
                    SECONDS     MINUTES      HOURS       DAYS        YEARS
                    -----------------------------------------------------------
   TIME STEP LENGTH  86400.      1440.0      24.000      1.0000     2.73785E-03
 STRESS PERIOD TIME 1.96992E+07 3.28320E+05  5472.0      228.00     0.62423    
         TOTAL TIME 1.96992E+07 3.28320E+05  5472.0      228.00     0.62423    
1
 
 SOLVING FOR HEAD 
                                                   Max.-Head-Change                        Max.-Flux-Residual
  Residual-Control   Outer-Iter.   Inner-Iter.     Column Row Layer    Max.-Head-Change    Column Row Layer    Max.-Flux-Residual            L2-New               L2-Old           Solver-Max-Delh
          0                 1           2            32   19     1      -0.3460296906E-01      36   13    1      -0.5268757951E+03      0.3227767672E+04      0.8078155909E+02     -0.3460296906E-01
          0                 2           2            32   19     1       0.2987258074E-02      36   13    1       0.5268686918E+02      0.3210847191E+03      0.3227767672E+04      0.2987258074E-02

    ------------------------------------------------
       NWT REQUIRED            2 OUTER ITERATIONS 
       AND A TOTAL OF          4 INNER ITERATIONS.
    ------------------------------------------------

 OUTPUT CONTROL FOR STRESS PERIOD    1   TIME STEP  229
    SAVE HEAD FOR ALL LAYERS
    SAVE DRAWDOWN FOR ALL LAYERS
    SAVE BUDGET
    PRINT BUDGET
 UBDSV1 SAVING "         STORAGE" ON UNIT   9 AT TIME STEP229, STRESS PERIOD   1
 UBDSV2 SAVING "   CONSTANT HEAD" ON UNIT   9 AT TIME STEP229, STRESS PERIOD   1
 UBDSV1 SAVING "FLOW RIGHT FACE " ON UNIT   9 AT TIME STEP229, STRESS PERIOD   1
 UBDSV1 SAVING "FLOW FRONT FACE " ON UNIT   9 AT TIME STEP229, STRESS PERIOD   1
 UBDSV4 SAVING "   RIVER LEAKAGE" ON UNIT   9 AT TIME STEP229, STRESS PERIOD   1
 UBDSV3 SAVING "        RECHARGE" ON UNIT   9 AT TIME STEP229, STRESS PERIOD   1

 HEAD WILL BE SAVED ON UNIT 5037 AT END OF TIME STEP  229, STRESS PERIOD    1

 DRAWDOWN WILL BE SAVED ON UNIT   38 AT END OF TIME STEP  229, STRESS PERIOD    1
1
  VOLUMETRIC BUDGET FOR ENTIRE MODEL AT END OF TIME STEP  229, STRESS PERIOD   1
  ------------------------------------------------------------------------------

     CUMULATIVE VOLUMES      L**3       RATES FOR THIS TIME STEP      L**3/T
     ------------------                 ------------------------

           IN:                                      IN:
           ---                                      ---
             STORAGE =     9541741.0000               STORAGE =       32380.1172
       CONSTANT HEAD =           0.0000         CONSTANT HEAD =           0.0000
       RIVER LEAKAGE =     1348496.6250         RIVER LEAKAGE =        4049.3977
            RECHARGE =     3136476.7500              RECHARGE =          70.7388

            TOTAL IN =    14026715.0000              TOTAL IN =       36500.2539

          OUT:                                     OUT:
          ----                                     ----
             STORAGE =     5107872.0000               STORAGE =        1143.7976
       CONSTANT HEAD =           0.0000         CONSTANT HEAD =           0.0000
       RIVER LEAKAGE =     8904846.0000         RIVER LEAKAGE =       35091.2656
            RECHARGE =           0.0000              RECHARGE =           0.0000

           TOTAL OUT =    14012718.0000             TOTAL OUT =       36235.0625

            IN - OUT =       13997.0000              IN - OUT =         265.1914

 PERCENT DISCREPANCY =           0.10     PERCENT DISCREPANCY =           0.73






         TIME SUMMARY AT END OF TIME STEP  229 IN STRESS PERIOD    1
                    SECONDS     MINUTES      HOURS       DAYS        YEARS
                    -----------------------------------------------------------
   TIME STEP LENGTH  86400.      1440.0      24.000      1.0000     2.73785E-03
 STRESS PERIOD TIME 1.97856E+07 3.29760E+05  5496.0      229.00     0.62697    
         TOTAL TIME 1.97856E+07 3.29760E+05  5496.0      229.00     0.62697    
1
 
 SOLVING FOR HEAD 
                                                   Max.-Head-Change                        Max.-Flux-Residual
  Residual-Control   Outer-Iter.   Inner-Iter.     Column Row Layer    Max.-Head-Change    Column Row Layer    Max.-Flux-Residual            L2-New               L2-Old           Solver-Max-Delh
          0                 1           2            38   15     1       0.2654054799E-01      36   13    1       0.5267867297E+03      0.3158783932E+04      0.1605417651E+02      0.2654054799E-01
          0                 2           2             5   10     1       0.1631785998E+00      38   15    1      -0.1581680989E+04      0.1614272340E+04      0.3158783932E+04      0.1631785998E+00
          0                 3           2             5   10     1      -0.1409280866E-01      38   15    1      -0.7909071179E+02      0.8096211399E+02      0.1614272340E+04     -0.1409280866E-01

    ------------------------------------------------
       NWT REQUIRED            3 OUTER ITERATIONS 
       AND A TOTAL OF          6 INNER ITERATIONS.
    ------------------------------------------------

 OUTPUT CONTROL FOR STRESS PERIOD    1   TIME STEP  230
    SAVE HEAD FOR ALL LAYERS
    SAVE DRAWDOWN FOR ALL LAYERS
    SAVE BUDGET
    PRINT BUDGET
 UBDSV1 SAVING "         STORAGE" ON UNIT   9 AT TIME STEP230, STRESS PERIOD   1
 UBDSV2 SAVING "   CONSTANT HEAD" ON UNIT   9 AT TIME STEP230, STRESS PERIOD   1
 UBDSV1 SAVING "FLOW RIGHT FACE " ON UNIT   9 AT TIME STEP230, STRESS PERIOD   1
 UBDSV1 SAVING "FLOW FRONT FACE " ON UNIT   9 AT TIME STEP230, STRESS PERIOD   1
 UBDSV4 SAVING "   RIVER LEAKAGE" ON UNIT   9 AT TIME STEP230, STRESS PERIOD   1
 UBDSV3 SAVING "        RECHARGE" ON UNIT   9 AT TIME STEP230, STRESS PERIOD   1

 HEAD WILL BE SAVED ON UNIT 5037 AT END OF TIME STEP  230, STRESS PERIOD    1

 DRAWDOWN WILL BE SAVED ON UNIT   38 AT END OF TIME STEP  230, STRESS PERIOD    1
1
  VOLUMETRIC BUDGET FOR ENTIRE MODEL AT END OF TIME STEP  230, STRESS PERIOD   1
  ------------------------------------------------------------------------------

     CUMULATIVE VOLUMES      L**3       RATES FOR THIS TIME STEP      L**3/T
     ------------------                 ------------------------

           IN:                                      IN:
           ---                                      ---
             STORAGE =     9565825.0000               STORAGE =       24084.4629
       CONSTANT HEAD =           0.0000         CONSTANT HEAD =           0.0000
       RIVER LEAKAGE =     1356103.6250         RIVER LEAKAGE =        7607.0132
            RECHARGE =     3136546.7500              RECHARGE =          70.0598

            TOTAL IN =    14058476.0000              TOTAL IN =       31761.5371

          OUT:                                     OUT:
          ----                                     ----
             STORAGE =     5115903.0000               STORAGE =        8031.1182
       CONSTANT HEAD =           0.0000         CONSTANT HEAD =           0.0000
       RIVER LEAKAGE =     8928582.0000         RIVER LEAKAGE =       23736.2168
            RECHARGE =           0.0000              RECHARGE =           0.0000

           TOTAL OUT =    14044485.0000             TOTAL OUT =       31767.3359

            IN - OUT =       13991.0000              IN - OUT =          -5.7988

 PERCENT DISCREPANCY =           0.10     PERCENT DISCREPANCY =          -0.02






         TIME SUMMARY AT END OF TIME STEP  230 IN STRESS PERIOD    1
                    SECONDS     MINUTES      HOURS       DAYS        YEARS
                    -----------------------------------------------------------
   TIME STEP LENGTH  86400.      1440.0      24.000      1.0000     2.73785E-03
 STRESS PERIOD TIME 1.98720E+07 3.31200E+05  5520.0      230.00     0.62971    
         TOTAL TIME 1.98720E+07 3.31200E+05  5520.0      230.00     0.62971    
1
 
 SOLVING FOR HEAD 
                                                   Max.-Head-Change                        Max.-Flux-Residual
  Residual-Control   Outer-Iter.   Inner-Iter.     Column Row Layer    Max.-Head-Change    Column Row Layer    Max.-Flux-Residual            L2-New               L2-Old           Solver-Max-Delh
          0                 1           2             5   10     1       0.2162964659E+00      36   13    1      -0.5268752835E+03      0.3221703163E+04      0.8096211399E+02      0.2162964659E+00
          0                 2           2             5   10     1      -0.1868121451E-01      36   13    1       0.5268681635E+02      0.3204790371E+03      0.3221703163E+04     -0.1868121451E-01

    ------------------------------------------------
       NWT REQUIRED            2 OUTER ITERATIONS 
       AND A TOTAL OF          4 INNER ITERATIONS.
    ------------------------------------------------

 OUTPUT CONTROL FOR STRESS PERIOD    1   TIME STEP  231
    SAVE HEAD FOR ALL LAYERS
    SAVE DRAWDOWN FOR ALL LAYERS
    SAVE BUDGET
    PRINT BUDGET
 UBDSV1 SAVING "         STORAGE" ON UNIT   9 AT TIME STEP231, STRESS PERIOD   1
 UBDSV2 SAVING "   CONSTANT HEAD" ON UNIT   9 AT TIME STEP231, STRESS PERIOD   1
 UBDSV1 SAVING "FLOW RIGHT FACE " ON UNIT   9 AT TIME STEP231, STRESS PERIOD   1
 UBDSV1 SAVING "FLOW FRONT FACE " ON UNIT   9 AT TIME STEP231, STRESS PERIOD   1
 UBDSV4 SAVING "   RIVER LEAKAGE" ON UNIT   9 AT TIME STEP231, STRESS PERIOD   1
 UBDSV3 SAVING "        RECHARGE" ON UNIT   9 AT TIME STEP231, STRESS PERIOD   1

 HEAD WILL BE SAVED ON UNIT 5037 AT END OF TIME STEP  231, STRESS PERIOD    1

 DRAWDOWN WILL BE SAVED ON UNIT   38 AT END OF TIME STEP  231, STRESS PERIOD    1
1
  VOLUMETRIC BUDGET FOR ENTIRE MODEL AT END OF TIME STEP  231, STRESS PERIOD   1
  ------------------------------------------------------------------------------

     CUMULATIVE VOLUMES      L**3       RATES FOR THIS TIME STEP      L**3/T
     ------------------                 ------------------------

           IN:                                      IN:
           ---                                      ---
             STORAGE =     9598103.0000               STORAGE =       32277.9648
       CONSTANT HEAD =           0.0000         CONSTANT HEAD =           0.0000
       RIVER LEAKAGE =     1360161.2500         RIVER LEAKAGE =        4057.6672
            RECHARGE =     3136616.2500              RECHARGE =          69.3919

            TOTAL IN =    14094880.0000              TOTAL IN =       36405.0234

          OUT:                                     OUT:
          ----                                     ----
             STORAGE =     5117022.0000               STORAGE =        1118.7935
       CONSTANT HEAD =           0.0000         CONSTANT HEAD =           0.0000
       RIVER LEAKAGE =     8963603.0000         RIVER LEAKAGE =       35021.4062
            RECHARGE =           0.0000              RECHARGE =           0.0000

           TOTAL OUT =    14080625.0000             TOTAL OUT =       36140.1992

            IN - OUT =       14255.0000              IN - OUT =         264.8242

 PERCENT DISCREPANCY =           0.10     PERCENT DISCREPANCY =           0.73






         TIME SUMMARY AT END OF TIME STEP  231 IN STRESS PERIOD    1
                    SECONDS     MINUTES      HOURS       DAYS        YEARS
                    -----------------------------------------------------------
   TIME STEP LENGTH  86400.      1440.0      24.000      1.0000     2.73785E-03
 STRESS PERIOD TIME 1.99584E+07 3.32640E+05  5544.0      231.00     0.63244    
         TOTAL TIME 1.99584E+07 3.32640E+05  5544.0      231.00     0.63244    
1
 
 SOLVING FOR HEAD 
                                                   Max.-Head-Change                        Max.-Flux-Residual
  Residual-Control   Outer-Iter.   Inner-Iter.     Column Row Layer    Max.-Head-Change    Column Row Layer    Max.-Flux-Residual            L2-New               L2-Old           Solver-Max-Delh
          0                 1           2             5   10     1       0.1617181097E+00      36   13    1       0.5267866676E+03      0.3153606395E+04      0.1602391718E+02      0.1617181097E+00
          0                 2           2            38   15     1      -0.2134492485E-01      38   15    1      -0.1578917554E+04      0.1609910515E+04      0.3153606395E+04     -0.2134492485E-01

    ------------------------------------------------
       NWT REQUIRED            2 OUTER ITERATIONS 
       AND A TOTAL OF          4 INNER ITERATIONS.
    ------------------------------------------------

 OUTPUT CONTROL FOR STRESS PERIOD    1   TIME STEP  232
    SAVE HEAD FOR ALL LAYERS
    SAVE DRAWDOWN FOR ALL LAYERS
    SAVE BUDGET
    PRINT BUDGET
 UBDSV1 SAVING "         STORAGE" ON UNIT   9 AT TIME STEP232, STRESS PERIOD   1
 UBDSV2 SAVING "   CONSTANT HEAD" ON UNIT   9 AT TIME STEP232, STRESS PERIOD   1
 UBDSV1 SAVING "FLOW RIGHT FACE " ON UNIT   9 AT TIME STEP232, STRESS PERIOD   1
 UBDSV1 SAVING "FLOW FRONT FACE " ON UNIT   9 AT TIME STEP232, STRESS PERIOD   1
 UBDSV4 SAVING "   RIVER LEAKAGE" ON UNIT   9 AT TIME STEP232, STRESS PERIOD   1
 UBDSV3 SAVING "        RECHARGE" ON UNIT   9 AT TIME STEP232, STRESS PERIOD   1

 HEAD WILL BE SAVED ON UNIT 5037 AT END OF TIME STEP  232, STRESS PERIOD    1

 DRAWDOWN WILL BE SAVED ON UNIT   38 AT END OF TIME STEP  232, STRESS PERIOD    1
1
  VOLUMETRIC BUDGET FOR ENTIRE MODEL AT END OF TIME STEP  232, STRESS PERIOD   1
  ------------------------------------------------------------------------------

     CUMULATIVE VOLUMES      L**3       RATES FOR THIS TIME STEP      L**3/T
     ------------------                 ------------------------

           IN:                                      IN:
           ---                                      ---
             STORAGE =     9622206.0000               STORAGE =       24103.0801
       CONSTANT HEAD =           0.0000         CONSTANT HEAD =           0.0000
       RIVER LEAKAGE =     1367692.3750         RIVER LEAKAGE =        7531.0801
            RECHARGE =     3136685.0000              RECHARGE =          68.7348

            TOTAL IN =    14126583.0000              TOTAL IN =       31702.8945

          OUT:                                     OUT:
          ----                                     ----
             STORAGE =     5125083.0000               STORAGE =        8061.0063
       CONSTANT HEAD =           0.0000         CONSTANT HEAD =           0.0000
       RIVER LEAKAGE =     8987353.0000         RIVER LEAKAGE =       23750.4316
            RECHARGE =           0.0000              RECHARGE =           0.0000

           TOTAL OUT =    14112436.0000             TOTAL OUT =       31811.4375

            IN - OUT =       14147.0000              IN - OUT =        -108.5430

 PERCENT DISCREPANCY =           0.10     PERCENT DISCREPANCY =          -0.34






         TIME SUMMARY AT END OF TIME STEP  232 IN STRESS PERIOD    1
                    SECONDS     MINUTES      HOURS       DAYS        YEARS
                    -----------------------------------------------------------
   TIME STEP LENGTH  86400.      1440.0      24.000      1.0000     2.73785E-03
 STRESS PERIOD TIME 2.00448E+07 3.34080E+05  5568.0      232.00     0.63518    
         TOTAL TIME 2.00448E+07 3.34080E+05  5568.0      232.00     0.63518    
1
 
 SOLVING FOR HEAD 
                                                   Max.-Head-Change                        Max.-Flux-Residual
  Residual-Control   Outer-Iter.   Inner-Iter.     Column Row Layer    Max.-Head-Change    Column Row Layer    Max.-Flux-Residual            L2-New               L2-Old           Solver-Max-Delh
          0                 1           2             5   10     1       0.1234237390E+00      36   13    1      -0.5268749070E+03      0.3215843102E+04      0.8050203425E+02      0.1234237390E+00
          0                 2           2             5   10     1      -0.1066013393E-01      36   13    1       0.5268677707E+02      0.3198941410E+03      0.3215843102E+04     -0.1066013393E-01

    ------------------------------------------------
       NWT REQUIRED            2 OUTER ITERATIONS 
       AND A TOTAL OF          4 INNER ITERATIONS.
    ------------------------------------------------

 OUTPUT CONTROL FOR STRESS PERIOD    1   TIME STEP  233
    SAVE HEAD FOR ALL LAYERS
    SAVE DRAWDOWN FOR ALL LAYERS
    SAVE BUDGET
    PRINT BUDGET
 UBDSV1 SAVING "         STORAGE" ON UNIT   9 AT TIME STEP233, STRESS PERIOD   1
 UBDSV2 SAVING "   CONSTANT HEAD" ON UNIT   9 AT TIME STEP233, STRESS PERIOD   1
 UBDSV1 SAVING "FLOW RIGHT FACE " ON UNIT   9 AT TIME STEP233, STRESS PERIOD   1
 UBDSV1 SAVING "FLOW FRONT FACE " ON UNIT   9 AT TIME STEP233, STRESS PERIOD   1
 UBDSV4 SAVING "   RIVER LEAKAGE" ON UNIT   9 AT TIME STEP233, STRESS PERIOD   1
 UBDSV3 SAVING "        RECHARGE" ON UNIT   9 AT TIME STEP233, STRESS PERIOD   1

 HEAD WILL BE SAVED ON UNIT 5037 AT END OF TIME STEP  233, STRESS PERIOD    1

 DRAWDOWN WILL BE SAVED ON UNIT   38 AT END OF TIME STEP  233, STRESS PERIOD    1
1
  VOLUMETRIC BUDGET FOR ENTIRE MODEL AT END OF TIME STEP  233, STRESS PERIOD   1
  ------------------------------------------------------------------------------

     CUMULATIVE VOLUMES      L**3       RATES FOR THIS TIME STEP      L**3/T
     ------------------                 ------------------------

           IN:                                      IN:
           ---                                      ---
             STORAGE =     9654383.0000               STORAGE =       32176.6172
       CONSTANT HEAD =           0.0000         CONSTANT HEAD =           0.0000
       RIVER LEAKAGE =     1371758.2500         RIVER LEAKAGE =        4065.8750
            RECHARGE =     3136753.0000              RECHARGE =          68.0884

            TOTAL IN =    14162894.0000              TOTAL IN =       36310.5820

          OUT:                                     OUT:
          ----                                     ----
             STORAGE =     5126177.0000               STORAGE =        1093.8650
       CONSTANT HEAD =           0.0000         CONSTANT HEAD =           0.0000
       RIVER LEAKAGE =     9022305.0000         RIVER LEAKAGE =       34952.2539
            RECHARGE =           0.0000              RECHARGE =           0.0000

           TOTAL OUT =    14148482.0000             TOTAL OUT =       36046.1172

            IN - OUT =       14412.0000              IN - OUT =         264.4648

 PERCENT DISCREPANCY =           0.10     PERCENT DISCREPANCY =           0.73






         TIME SUMMARY AT END OF TIME STEP  233 IN STRESS PERIOD    1
                    SECONDS     MINUTES      HOURS       DAYS        YEARS
                    -----------------------------------------------------------
   TIME STEP LENGTH  86400.      1440.0      24.000      1.0000     2.73785E-03
 STRESS PERIOD TIME 2.01312E+07 3.35520E+05  5592.0      233.00     0.63792    
         TOTAL TIME 2.01312E+07 3.35520E+05  5592.0      233.00     0.63792    
1
 
 SOLVING FOR HEAD 
                                                   Max.-Head-Change                        Max.-Flux-Residual
  Residual-Control   Outer-Iter.   Inner-Iter.     Column Row Layer    Max.-Head-Change    Column Row Layer    Max.-Flux-Residual            L2-New               L2-Old           Solver-Max-Delh
          0                 1           2             5   10     1       0.9616467493E-01      36   13    1       0.5267870524E+03      0.3149168409E+04      0.1599472093E+02      0.9616467493E-01
          0                 2           2            38   15     1      -0.2130769472E-01      38   15    1      -0.1576163492E+04      0.1607122226E+04      0.3149168409E+04     -0.2130769472E-01

    ------------------------------------------------
       NWT REQUIRED            2 OUTER ITERATIONS 
       AND A TOTAL OF          4 INNER ITERATIONS.
    ------------------------------------------------

 OUTPUT CONTROL FOR STRESS PERIOD    1   TIME STEP  234
    SAVE HEAD FOR ALL LAYERS
    SAVE DRAWDOWN FOR ALL LAYERS
    SAVE BUDGET
    PRINT BUDGET
 UBDSV1 SAVING "         STORAGE" ON UNIT   9 AT TIME STEP234, STRESS PERIOD   1
 UBDSV2 SAVING "   CONSTANT HEAD" ON UNIT   9 AT TIME STEP234, STRESS PERIOD   1
 UBDSV1 SAVING "FLOW RIGHT FACE " ON UNIT   9 AT TIME STEP234, STRESS PERIOD   1
 UBDSV1 SAVING "FLOW FRONT FACE " ON UNIT   9 AT TIME STEP234, STRESS PERIOD   1
 UBDSV4 SAVING "   RIVER LEAKAGE" ON UNIT   9 AT TIME STEP234, STRESS PERIOD   1
 UBDSV3 SAVING "        RECHARGE" ON UNIT   9 AT TIME STEP234, STRESS PERIOD   1

 HEAD WILL BE SAVED ON UNIT 5037 AT END OF TIME STEP  234, STRESS PERIOD    1

 DRAWDOWN WILL BE SAVED ON UNIT   38 AT END OF TIME STEP  234, STRESS PERIOD    1
1
  VOLUMETRIC BUDGET FOR ENTIRE MODEL AT END OF TIME STEP  234, STRESS PERIOD   1
  ------------------------------------------------------------------------------

     CUMULATIVE VOLUMES      L**3       RATES FOR THIS TIME STEP      L**3/T
     ------------------                 ------------------------

           IN:                                      IN:
           ---                                      ---
             STORAGE =     9678391.0000               STORAGE =       24007.9512
       CONSTANT HEAD =           0.0000         CONSTANT HEAD =           0.0000
       RIVER LEAKAGE =     1379300.8750         RIVER LEAKAGE =        7542.5645
            RECHARGE =     3136820.5000              RECHARGE =          67.4525

            TOTAL IN =    14194512.0000              TOTAL IN =       31617.9688

          OUT:                                     OUT:
          ----                                     ----
             STORAGE =     5134219.5000               STORAGE =        8042.3013
       CONSTANT HEAD =           0.0000         CONSTANT HEAD =           0.0000
       RIVER LEAKAGE =     9045989.0000         RIVER LEAKAGE =       23684.4512
            RECHARGE =           0.0000              RECHARGE =           0.0000

           TOTAL OUT =    14180208.0000             TOTAL OUT =       31726.7520

            IN - OUT =       14304.0000              IN - OUT =        -108.7832

 PERCENT DISCREPANCY =           0.10     PERCENT DISCREPANCY =          -0.34






         TIME SUMMARY AT END OF TIME STEP  234 IN STRESS PERIOD    1
                    SECONDS     MINUTES      HOURS       DAYS        YEARS
                    -----------------------------------------------------------
   TIME STEP LENGTH  86400.      1440.0      24.000      1.0000     2.73785E-03
 STRESS PERIOD TIME 2.02176E+07 3.36960E+05  5616.0      234.00     0.64066    
         TOTAL TIME 2.02176E+07 3.36960E+05  5616.0      234.00     0.64066    
1
 
 SOLVING FOR HEAD 
                                                   Max.-Head-Change                        Max.-Flux-Residual
  Residual-Control   Outer-Iter.   Inner-Iter.     Column Row Layer    Max.-Head-Change    Column Row Layer    Max.-Flux-Residual            L2-New               L2-Old           Solver-Max-Delh
          0                 1           2             5   10     1       0.7642399162E-01      36   13    1      -0.5268744749E+03      0.3210472123E+04      0.8036260493E+02      0.7642399162E-01
          0                 2           2            21   16     1       0.4400883502E-01      36   13    1       0.5268673226E+02      0.3196521887E+03      0.3210472123E+04      0.4400883502E-01

    ------------------------------------------------
       NWT REQUIRED            2 OUTER ITERATIONS 
       AND A TOTAL OF          4 INNER ITERATIONS.
    ------------------------------------------------

 OUTPUT CONTROL FOR STRESS PERIOD    1   TIME STEP  235
    SAVE HEAD FOR ALL LAYERS
    SAVE DRAWDOWN FOR ALL LAYERS
    SAVE BUDGET
    PRINT BUDGET
 UBDSV1 SAVING "         STORAGE" ON UNIT   9 AT TIME STEP235, STRESS PERIOD   1
 UBDSV2 SAVING "   CONSTANT HEAD" ON UNIT   9 AT TIME STEP235, STRESS PERIOD   1
 UBDSV1 SAVING "FLOW RIGHT FACE " ON UNIT   9 AT TIME STEP235, STRESS PERIOD   1
 UBDSV1 SAVING "FLOW FRONT FACE " ON UNIT   9 AT TIME STEP235, STRESS PERIOD   1
 UBDSV4 SAVING "   RIVER LEAKAGE" ON UNIT   9 AT TIME STEP235, STRESS PERIOD   1
 UBDSV3 SAVING "        RECHARGE" ON UNIT   9 AT TIME STEP235, STRESS PERIOD   1

 HEAD WILL BE SAVED ON UNIT 5037 AT END OF TIME STEP  235, STRESS PERIOD    1

 DRAWDOWN WILL BE SAVED ON UNIT   38 AT END OF TIME STEP  235, STRESS PERIOD    1
1
  VOLUMETRIC BUDGET FOR ENTIRE MODEL AT END OF TIME STEP  235, STRESS PERIOD   1
  ------------------------------------------------------------------------------

     CUMULATIVE VOLUMES      L**3       RATES FOR THIS TIME STEP      L**3/T
     ------------------                 ------------------------

           IN:                                      IN:
           ---                                      ---
             STORAGE =     9710466.0000               STORAGE =       32074.8691
       CONSTANT HEAD =           0.0000         CONSTANT HEAD =           0.0000
       RIVER LEAKAGE =     1383374.8750         RIVER LEAKAGE =        4074.0264
            RECHARGE =     3136887.2500              RECHARGE =          66.8267

            TOTAL IN =    14230728.0000              TOTAL IN =       36215.7227

          OUT:                                     OUT:
          ----                                     ----
             STORAGE =     5135288.0000               STORAGE =        1068.7479
       CONSTANT HEAD =           0.0000         CONSTANT HEAD =           0.0000
       RIVER LEAKAGE =     9080873.0000         RIVER LEAKAGE =       34883.8359
            RECHARGE =           0.0000              RECHARGE =           0.0000

           TOTAL OUT =    14216161.0000             TOTAL OUT =       35952.5820

            IN - OUT =       14567.0000              IN - OUT =         263.1406

 PERCENT DISCREPANCY =           0.10     PERCENT DISCREPANCY =           0.73






         TIME SUMMARY AT END OF TIME STEP  235 IN STRESS PERIOD    1
                    SECONDS     MINUTES      HOURS       DAYS        YEARS
                    -----------------------------------------------------------
   TIME STEP LENGTH  86400.      1440.0      24.000      1.0000     2.73785E-03
 STRESS PERIOD TIME 2.03040E+07 3.38400E+05  5640.0      235.00     0.64339    
         TOTAL TIME 2.03040E+07 3.38400E+05  5640.0      235.00     0.64339    
1
 
 SOLVING FOR HEAD 
                                                   Max.-Head-Change                        Max.-Flux-Residual
  Residual-Control   Outer-Iter.   Inner-Iter.     Column Row Layer    Max.-Head-Change    Column Row Layer    Max.-Flux-Residual            L2-New               L2-Old           Solver-Max-Delh
          0                 1           2            21   16     1       0.9530782169E-01      36   13    1       0.5267879110E+03      0.3144907598E+04      0.1603437981E+02      0.9530782169E-01
          0                 2           2            38   15     1      -0.2127045645E-01      38   15    1      -0.1573408836E+04      0.1604338044E+04      0.3144907598E+04     -0.2127045645E-01

    ------------------------------------------------
       NWT REQUIRED            2 OUTER ITERATIONS 
       AND A TOTAL OF          4 INNER ITERATIONS.
    ------------------------------------------------

 OUTPUT CONTROL FOR STRESS PERIOD    1   TIME STEP  236
    SAVE HEAD FOR ALL LAYERS
    SAVE DRAWDOWN FOR ALL LAYERS
    SAVE BUDGET
    PRINT BUDGET
 UBDSV1 SAVING "         STORAGE" ON UNIT   9 AT TIME STEP236, STRESS PERIOD   1
 UBDSV2 SAVING "   CONSTANT HEAD" ON UNIT   9 AT TIME STEP236, STRESS PERIOD   1
 UBDSV1 SAVING "FLOW RIGHT FACE " ON UNIT   9 AT TIME STEP236, STRESS PERIOD   1
 UBDSV1 SAVING "FLOW FRONT FACE " ON UNIT   9 AT TIME STEP236, STRESS PERIOD   1
 UBDSV4 SAVING "   RIVER LEAKAGE" ON UNIT   9 AT TIME STEP236, STRESS PERIOD   1
 UBDSV3 SAVING "        RECHARGE" ON UNIT   9 AT TIME STEP236, STRESS PERIOD   1

 HEAD WILL BE SAVED ON UNIT 5037 AT END OF TIME STEP  236, STRESS PERIOD    1

 DRAWDOWN WILL BE SAVED ON UNIT   38 AT END OF TIME STEP  236, STRESS PERIOD    1
1
  VOLUMETRIC BUDGET FOR ENTIRE MODEL AT END OF TIME STEP  236, STRESS PERIOD   1
  ------------------------------------------------------------------------------

     CUMULATIVE VOLUMES      L**3       RATES FOR THIS TIME STEP      L**3/T
     ------------------                 ------------------------

           IN:                                      IN:
           ---                                      ---
             STORAGE =     9734376.0000               STORAGE =       23909.7402
       CONSTANT HEAD =           0.0000         CONSTANT HEAD =           0.0000
       RIVER LEAKAGE =     1390928.7500         RIVER LEAKAGE =        7553.9185
            RECHARGE =     3136953.5000              RECHARGE =          66.2109

            TOTAL IN =    14262258.0000              TOTAL IN =       31529.8691

          OUT:                                     OUT:
          ----                                     ----
             STORAGE =     5143307.5000               STORAGE =        8019.7188
       CONSTANT HEAD =           0.0000         CONSTANT HEAD =           0.0000
       RIVER LEAKAGE =     9104492.0000         RIVER LEAKAGE =       23619.1777
            RECHARGE =           0.0000              RECHARGE =           0.0000

           TOTAL OUT =    14247800.0000             TOTAL OUT =       31638.8965

            IN - OUT =       14458.0000              IN - OUT =        -109.0273

 PERCENT DISCREPANCY =           0.10     PERCENT DISCREPANCY =          -0.35






         TIME SUMMARY AT END OF TIME STEP  236 IN STRESS PERIOD    1
                    SECONDS     MINUTES      HOURS       DAYS        YEARS
                    -----------------------------------------------------------
   TIME STEP LENGTH  86400.      1440.0      24.000      1.0000     2.73785E-03
 STRESS PERIOD TIME 2.03904E+07 3.39840E+05  5664.0      236.00     0.64613    
         TOTAL TIME 2.03904E+07 3.39840E+05  5664.0      236.00     0.64613    
1
 
 SOLVING FOR HEAD 
                                                   Max.-Head-Change                        Max.-Flux-Residual
  Residual-Control   Outer-Iter.   Inner-Iter.     Column Row Layer    Max.-Head-Change    Column Row Layer    Max.-Flux-Residual            L2-New               L2-Old           Solver-Max-Delh
          0                 1           2            21   16     1       0.7176499055E-01      36   13    1      -0.5268739822E+03      0.3205102273E+04      0.8022337961E+02      0.7176499055E-01
          0                 2           2            21   16     1      -0.6197888167E-02      36   13    1       0.5268668144E+02      0.3188232026E+03      0.3205102273E+04     -0.6197888167E-02

    ------------------------------------------------
       NWT REQUIRED            2 OUTER ITERATIONS 
       AND A TOTAL OF          4 INNER ITERATIONS.
    ------------------------------------------------

 OUTPUT CONTROL FOR STRESS PERIOD    1   TIME STEP  237
    SAVE HEAD FOR ALL LAYERS
    SAVE DRAWDOWN FOR ALL LAYERS
    SAVE BUDGET
    PRINT BUDGET
 UBDSV1 SAVING "         STORAGE" ON UNIT   9 AT TIME STEP237, STRESS PERIOD   1
 UBDSV2 SAVING "   CONSTANT HEAD" ON UNIT   9 AT TIME STEP237, STRESS PERIOD   1
 UBDSV1 SAVING "FLOW RIGHT FACE " ON UNIT   9 AT TIME STEP237, STRESS PERIOD   1
 UBDSV1 SAVING "FLOW FRONT FACE " ON UNIT   9 AT TIME STEP237, STRESS PERIOD   1
 UBDSV4 SAVING "   RIVER LEAKAGE" ON UNIT   9 AT TIME STEP237, STRESS PERIOD   1
 UBDSV3 SAVING "        RECHARGE" ON UNIT   9 AT TIME STEP237, STRESS PERIOD   1

 HEAD WILL BE SAVED ON UNIT 5037 AT END OF TIME STEP  237, STRESS PERIOD    1

 DRAWDOWN WILL BE SAVED ON UNIT   38 AT END OF TIME STEP  237, STRESS PERIOD    1
1
  VOLUMETRIC BUDGET FOR ENTIRE MODEL AT END OF TIME STEP  237, STRESS PERIOD   1
  ------------------------------------------------------------------------------

     CUMULATIVE VOLUMES      L**3       RATES FOR THIS TIME STEP      L**3/T
     ------------------                 ------------------------

           IN:                                      IN:
           ---                                      ---
             STORAGE =     9766346.0000               STORAGE =       31970.4766
       CONSTANT HEAD =           0.0000         CONSTANT HEAD =           0.0000
       RIVER LEAKAGE =     1395010.8750         RIVER LEAKAGE =        4082.1113
            RECHARGE =     3137019.0000              RECHARGE =          65.6049

            TOTAL IN =    14298376.0000              TOTAL IN =       36118.1914

          OUT:                                     OUT:
          ----                                     ----
             STORAGE =     5144346.0000               STORAGE =        1038.2535
       CONSTANT HEAD =           0.0000         CONSTANT HEAD =           0.0000
       RIVER LEAKAGE =     9139308.0000         RIVER LEAKAGE =       34816.1836
            RECHARGE =           0.0000              RECHARGE =           0.0000

           TOTAL OUT =    14283654.0000             TOTAL OUT =       35854.4375

            IN - OUT =       14722.0000              IN - OUT =         263.7539

 PERCENT DISCREPANCY =           0.10     PERCENT DISCREPANCY =           0.73






         TIME SUMMARY AT END OF TIME STEP  237 IN STRESS PERIOD    1
                    SECONDS     MINUTES      HOURS       DAYS        YEARS
                    -----------------------------------------------------------
   TIME STEP LENGTH  86400.      1440.0      24.000      1.0000     2.73785E-03
 STRESS PERIOD TIME 2.04768E+07 3.41280E+05  5688.0      237.00     0.64887    
         TOTAL TIME 2.04768E+07 3.41280E+05  5688.0      237.00     0.64887    
1
 
 SOLVING FOR HEAD 
                                                   Max.-Head-Change                        Max.-Flux-Residual
  Residual-Control   Outer-Iter.   Inner-Iter.     Column Row Layer    Max.-Head-Change    Column Row Layer    Max.-Flux-Residual            L2-New               L2-Old           Solver-Max-Delh
          0                 1           2            21   16     1       0.5488606378E-01      36   13    1       0.5267878301E+03      0.3140647041E+04      0.1594134244E+02      0.5488606378E-01
          0                 2           2            38   15     1      -0.2123361247E-01      38   15    1      -0.1570683339E+04      0.1601778441E+04      0.3140647041E+04     -0.2123361247E-01

    ------------------------------------------------
       NWT REQUIRED            2 OUTER ITERATIONS 
       AND A TOTAL OF          4 INNER ITERATIONS.
    ------------------------------------------------

 OUTPUT CONTROL FOR STRESS PERIOD    1   TIME STEP  238
    SAVE HEAD FOR ALL LAYERS
    SAVE DRAWDOWN FOR ALL LAYERS
    SAVE BUDGET
    PRINT BUDGET
 UBDSV1 SAVING "         STORAGE" ON UNIT   9 AT TIME STEP238, STRESS PERIOD   1
 UBDSV2 SAVING "   CONSTANT HEAD" ON UNIT   9 AT TIME STEP238, STRESS PERIOD   1
 UBDSV1 SAVING "FLOW RIGHT FACE " ON UNIT   9 AT TIME STEP238, STRESS PERIOD   1
 UBDSV1 SAVING "FLOW FRONT FACE " ON UNIT   9 AT TIME STEP238, STRESS PERIOD   1
 UBDSV4 SAVING "   RIVER LEAKAGE" ON UNIT   9 AT TIME STEP238, STRESS PERIOD   1
 UBDSV3 SAVING "        RECHARGE" ON UNIT   9 AT TIME STEP238, STRESS PERIOD   1

 HEAD WILL BE SAVED ON UNIT 5037 AT END OF TIME STEP  238, STRESS PERIOD    1

 DRAWDOWN WILL BE SAVED ON UNIT   38 AT END OF TIME STEP  238, STRESS PERIOD    1
1
  VOLUMETRIC BUDGET FOR ENTIRE MODEL AT END OF TIME STEP  238, STRESS PERIOD   1
  ------------------------------------------------------------------------------

     CUMULATIVE VOLUMES      L**3       RATES FOR THIS TIME STEP      L**3/T
     ------------------                 ------------------------

           IN:                                      IN:
           ---                                      ---
             STORAGE =     9790160.0000               STORAGE =       23813.8984
       CONSTANT HEAD =           0.0000         CONSTANT HEAD =           0.0000
       RIVER LEAKAGE =     1402576.0000         RIVER LEAKAGE =        7565.1260
            RECHARGE =     3137084.0000              RECHARGE =          65.0085

            TOTAL IN =    14329820.0000              TOTAL IN =       31444.0312

          OUT:                                     OUT:
          ----                                     ----
             STORAGE =     5152343.5000               STORAGE =        7997.4849
       CONSTANT HEAD =           0.0000         CONSTANT HEAD =           0.0000
       RIVER LEAKAGE =     9162863.0000         RIVER LEAKAGE =       23554.5625
            RECHARGE =           0.0000              RECHARGE =           0.0000

           TOTAL OUT =    14315206.0000             TOTAL OUT =       31552.0469

            IN - OUT =       14614.0000              IN - OUT =        -108.0156

 PERCENT DISCREPANCY =           0.10     PERCENT DISCREPANCY =          -0.34






         TIME SUMMARY AT END OF TIME STEP  238 IN STRESS PERIOD    1
                    SECONDS     MINUTES      HOURS       DAYS        YEARS
                    -----------------------------------------------------------
   TIME STEP LENGTH  86400.      1440.0      24.000      1.0000     2.73785E-03
 STRESS PERIOD TIME 2.05632E+07 3.42720E+05  5712.0      238.00     0.65161    
         TOTAL TIME 2.05632E+07 3.42720E+05  5712.0      238.00     0.65161    
1
 
 SOLVING FOR HEAD 
                                                   Max.-Head-Change                        Max.-Flux-Residual
  Residual-Control   Outer-Iter.   Inner-Iter.     Column Row Layer    Max.-Head-Change    Column Row Layer    Max.-Flux-Residual            L2-New               L2-Old           Solver-Max-Delh
          0                 1           2            21   16     1       0.4262866077E-01      36   13    1      -0.5268736260E+03      0.3199909647E+04      0.8009538284E+02      0.4262866077E-01
          0                 2           2            38   22     1       0.8067620310E-01      36   13    1       0.5268664431E+02      0.3203063214E+03      0.3199909647E+04      0.8067620310E-01

    ------------------------------------------------
       NWT REQUIRED            2 OUTER ITERATIONS 
       AND A TOTAL OF          4 INNER ITERATIONS.
    ------------------------------------------------

 OUTPUT CONTROL FOR STRESS PERIOD    1   TIME STEP  239
    SAVE HEAD FOR ALL LAYERS
    SAVE DRAWDOWN FOR ALL LAYERS
    SAVE BUDGET
    PRINT BUDGET
 UBDSV1 SAVING "         STORAGE" ON UNIT   9 AT TIME STEP239, STRESS PERIOD   1
 UBDSV2 SAVING "   CONSTANT HEAD" ON UNIT   9 AT TIME STEP239, STRESS PERIOD   1
 UBDSV1 SAVING "FLOW RIGHT FACE " ON UNIT   9 AT TIME STEP239, STRESS PERIOD   1
 UBDSV1 SAVING "FLOW FRONT FACE " ON UNIT   9 AT TIME STEP239, STRESS PERIOD   1
 UBDSV4 SAVING "   RIVER LEAKAGE" ON UNIT   9 AT TIME STEP239, STRESS PERIOD   1
 UBDSV3 SAVING "        RECHARGE" ON UNIT   9 AT TIME STEP239, STRESS PERIOD   1

 HEAD WILL BE SAVED ON UNIT 5037 AT END OF TIME STEP  239, STRESS PERIOD    1

 DRAWDOWN WILL BE SAVED ON UNIT   38 AT END OF TIME STEP  239, STRESS PERIOD    1
1
  VOLUMETRIC BUDGET FOR ENTIRE MODEL AT END OF TIME STEP  239, STRESS PERIOD   1
  ------------------------------------------------------------------------------

     CUMULATIVE VOLUMES      L**3       RATES FOR THIS TIME STEP      L**3/T
     ------------------                 ------------------------

           IN:                                      IN:
           ---                                      ---
             STORAGE =     9822027.0000               STORAGE =       31866.7051
       CONSTANT HEAD =           0.0000         CONSTANT HEAD =           0.0000
       RIVER LEAKAGE =     1406666.1250         RIVER LEAKAGE =        4090.1240
            RECHARGE =     3137148.5000              RECHARGE =          64.4214

            TOTAL IN =    14365842.0000              TOTAL IN =       36021.2500

          OUT:                                     OUT:
          ----                                     ----
             STORAGE =     5153354.5000               STORAGE =        1011.0336
       CONSTANT HEAD =           0.0000         CONSTANT HEAD =           0.0000
       RIVER LEAKAGE =     9197612.0000         RIVER LEAKAGE =       34749.3125
            RECHARGE =           0.0000              RECHARGE =           0.0000

           TOTAL OUT =    14350966.0000             TOTAL OUT =       35760.3477

            IN - OUT =       14876.0000              IN - OUT =         260.9023

 PERCENT DISCREPANCY =           0.10     PERCENT DISCREPANCY =           0.73






         TIME SUMMARY AT END OF TIME STEP  239 IN STRESS PERIOD    1
                    SECONDS     MINUTES      HOURS       DAYS        YEARS
                    -----------------------------------------------------------
   TIME STEP LENGTH  86400.      1440.0      24.000      1.0000     2.73785E-03
 STRESS PERIOD TIME 2.06496E+07 3.44160E+05  5736.0      239.00     0.65435    
         TOTAL TIME 2.06496E+07 3.44160E+05  5736.0      239.00     0.65435    
1
 
 SOLVING FOR HEAD 
                                                   Max.-Head-Change                        Max.-Flux-Residual
  Residual-Control   Outer-Iter.   Inner-Iter.     Column Row Layer    Max.-Head-Change    Column Row Layer    Max.-Flux-Residual            L2-New               L2-Old           Solver-Max-Delh
          0                 1           2            38   22     1       0.1529607657E+00      36   13    1       0.5267886676E+03      0.3136301659E+04      0.1633665624E+02      0.1529607657E+00
          0                 2           2            38   15     1      -0.2119679973E-01      38   15    1      -0.1567960152E+04      0.1598826380E+04      0.3136301659E+04     -0.2119679973E-01

    ------------------------------------------------
       NWT REQUIRED            2 OUTER ITERATIONS 
       AND A TOTAL OF          4 INNER ITERATIONS.
    ------------------------------------------------

 OUTPUT CONTROL FOR STRESS PERIOD    1   TIME STEP  240
    SAVE HEAD FOR ALL LAYERS
    SAVE DRAWDOWN FOR ALL LAYERS
    SAVE BUDGET
    PRINT BUDGET
 UBDSV1 SAVING "         STORAGE" ON UNIT   9 AT TIME STEP240, STRESS PERIOD   1
 UBDSV2 SAVING "   CONSTANT HEAD" ON UNIT   9 AT TIME STEP240, STRESS PERIOD   1
 UBDSV1 SAVING "FLOW RIGHT FACE " ON UNIT   9 AT TIME STEP240, STRESS PERIOD   1
 UBDSV1 SAVING "FLOW FRONT FACE " ON UNIT   9 AT TIME STEP240, STRESS PERIOD   1
 UBDSV4 SAVING "   RIVER LEAKAGE" ON UNIT   9 AT TIME STEP240, STRESS PERIOD   1
 UBDSV3 SAVING "        RECHARGE" ON UNIT   9 AT TIME STEP240, STRESS PERIOD   1

 HEAD WILL BE SAVED ON UNIT 5037 AT END OF TIME STEP  240, STRESS PERIOD    1

 DRAWDOWN WILL BE SAVED ON UNIT   38 AT END OF TIME STEP  240, STRESS PERIOD    1
1
  VOLUMETRIC BUDGET FOR ENTIRE MODEL AT END OF TIME STEP  240, STRESS PERIOD   1
  ------------------------------------------------------------------------------

     CUMULATIVE VOLUMES      L**3       RATES FOR THIS TIME STEP      L**3/T
     ------------------                 ------------------------

           IN:                                      IN:
           ---                                      ---
             STORAGE =     9845738.0000               STORAGE =       23711.3652
       CONSTANT HEAD =           0.0000         CONSTANT HEAD =           0.0000
       RIVER LEAKAGE =     1414242.3750         RIVER LEAKAGE =        7576.2012
            RECHARGE =     3137212.2500              RECHARGE =          63.8436

            TOTAL IN =    14397192.0000              TOTAL IN =       31351.4102

          OUT:                                     OUT:
          ----                                     ----
             STORAGE =     5161324.5000               STORAGE =        7970.2354
       CONSTANT HEAD =           0.0000         CONSTANT HEAD =           0.0000
       RIVER LEAKAGE =     9221103.0000         RIVER LEAKAGE =       23490.6719
            RECHARGE =           0.0000              RECHARGE =           0.0000

           TOTAL OUT =    14382428.0000             TOTAL OUT =       31460.9062

            IN - OUT =       14764.0000              IN - OUT =        -109.4961

 PERCENT DISCREPANCY =           0.10     PERCENT DISCREPANCY =          -0.35






         TIME SUMMARY AT END OF TIME STEP  240 IN STRESS PERIOD    1
                    SECONDS     MINUTES      HOURS       DAYS        YEARS
                    -----------------------------------------------------------
   TIME STEP LENGTH  86400.      1440.0      24.000      1.0000     2.73785E-03
 STRESS PERIOD TIME 2.07360E+07 3.45600E+05  5760.0      240.00     0.65708    
         TOTAL TIME 2.07360E+07 3.45600E+05  5760.0      240.00     0.65708    
1
 
 SOLVING FOR HEAD 
                                                   Max.-Head-Change                        Max.-Flux-Residual
  Residual-Control   Outer-Iter.   Inner-Iter.     Column Row Layer    Max.-Head-Change    Column Row Layer    Max.-Flux-Residual            L2-New               L2-Old           Solver-Max-Delh
          0                 1           2            38   22     1       0.1169185702E+00      36   13    1      -0.5268731480E+03      0.3194290870E+04      0.7994776716E+02      0.1169185702E+00
          0                 2           2            38   22     1      -0.1009727275E-01      36   13    1       0.5268659503E+02      0.3177456472E+03      0.3194290870E+04     -0.1009727275E-01

    ------------------------------------------------
       NWT REQUIRED            2 OUTER ITERATIONS 
       AND A TOTAL OF          4 INNER ITERATIONS.
    ------------------------------------------------

 OUTPUT CONTROL FOR STRESS PERIOD    1   TIME STEP  241
    SAVE HEAD FOR ALL LAYERS
    SAVE DRAWDOWN FOR ALL LAYERS
    SAVE BUDGET
    PRINT BUDGET
 UBDSV1 SAVING "         STORAGE" ON UNIT   9 AT TIME STEP241, STRESS PERIOD   1
 UBDSV2 SAVING "   CONSTANT HEAD" ON UNIT   9 AT TIME STEP241, STRESS PERIOD   1
 UBDSV1 SAVING "FLOW RIGHT FACE " ON UNIT   9 AT TIME STEP241, STRESS PERIOD   1
 UBDSV1 SAVING "FLOW FRONT FACE " ON UNIT   9 AT TIME STEP241, STRESS PERIOD   1
 UBDSV4 SAVING "   RIVER LEAKAGE" ON UNIT   9 AT TIME STEP241, STRESS PERIOD   1
 UBDSV3 SAVING "        RECHARGE" ON UNIT   9 AT TIME STEP241, STRESS PERIOD   1

 HEAD WILL BE SAVED ON UNIT 5037 AT END OF TIME STEP  241, STRESS PERIOD    1

 DRAWDOWN WILL BE SAVED ON UNIT   38 AT END OF TIME STEP  241, STRESS PERIOD    1
1
  VOLUMETRIC BUDGET FOR ENTIRE MODEL AT END OF TIME STEP  241, STRESS PERIOD   1
  ------------------------------------------------------------------------------

     CUMULATIVE VOLUMES      L**3       RATES FOR THIS TIME STEP      L**3/T
     ------------------                 ------------------------

           IN:                                      IN:
           ---                                      ---
             STORAGE =     9877499.0000               STORAGE =       31760.7754
       CONSTANT HEAD =           0.0000         CONSTANT HEAD =           0.0000
       RIVER LEAKAGE =     1418340.5000         RIVER LEAKAGE =        4098.0840
            RECHARGE =     3137275.5000              RECHARGE =          63.2747

            TOTAL IN =    14433116.0000              TOTAL IN =       35922.1328

          OUT:                                     OUT:
          ----                                     ----
             STORAGE =     5162300.5000               STORAGE =         975.9159
       CONSTANT HEAD =           0.0000         CONSTANT HEAD =           0.0000
       RIVER LEAKAGE =     9255786.0000         RIVER LEAKAGE =       34683.1602
            RECHARGE =           0.0000              RECHARGE =           0.0000

           TOTAL OUT =    14418086.0000             TOTAL OUT =       35659.0742

            IN - OUT =       15030.0000              IN - OUT =         263.0586

 PERCENT DISCREPANCY =           0.10     PERCENT DISCREPANCY =           0.73






         TIME SUMMARY AT END OF TIME STEP  241 IN STRESS PERIOD    1
                    SECONDS     MINUTES      HOURS       DAYS        YEARS
                    -----------------------------------------------------------
   TIME STEP LENGTH  86400.      1440.0      24.000      1.0000     2.73785E-03
 STRESS PERIOD TIME 2.08224E+07 3.47040E+05  5784.0      241.00     0.65982    
         TOTAL TIME 2.08224E+07 3.47040E+05  5784.0      241.00     0.65982    
1
 
 SOLVING FOR HEAD 
                                                   Max.-Head-Change                        Max.-Flux-Residual
  Residual-Control   Outer-Iter.   Inner-Iter.     Column Row Layer    Max.-Head-Change    Column Row Layer    Max.-Flux-Residual            L2-New               L2-Old           Solver-Max-Delh
          0                 1           2            38   22     1       0.9065335004E-01      36   13    1       0.5267885743E+03      0.3131825009E+04      0.1588772552E+02      0.9065335004E-01
          0                 2           2            38   15     1      -0.2116061804E-01      38   15    1      -0.1565283651E+04      0.1596114040E+04      0.3131825009E+04     -0.2116061804E-01

    ------------------------------------------------
       NWT REQUIRED            2 OUTER ITERATIONS 
       AND A TOTAL OF          4 INNER ITERATIONS.
    ------------------------------------------------

 OUTPUT CONTROL FOR STRESS PERIOD    1   TIME STEP  242
    SAVE HEAD FOR ALL LAYERS
    SAVE DRAWDOWN FOR ALL LAYERS
    SAVE BUDGET
    PRINT BUDGET
 UBDSV1 SAVING "         STORAGE" ON UNIT   9 AT TIME STEP242, STRESS PERIOD   1
 UBDSV2 SAVING "   CONSTANT HEAD" ON UNIT   9 AT TIME STEP242, STRESS PERIOD   1
 UBDSV1 SAVING "FLOW RIGHT FACE " ON UNIT   9 AT TIME STEP242, STRESS PERIOD   1
 UBDSV1 SAVING "FLOW FRONT FACE " ON UNIT   9 AT TIME STEP242, STRESS PERIOD   1
 UBDSV4 SAVING "   RIVER LEAKAGE" ON UNIT   9 AT TIME STEP242, STRESS PERIOD   1
 UBDSV3 SAVING "        RECHARGE" ON UNIT   9 AT TIME STEP242, STRESS PERIOD   1

 HEAD WILL BE SAVED ON UNIT 5037 AT END OF TIME STEP  242, STRESS PERIOD    1

 DRAWDOWN WILL BE SAVED ON UNIT   38 AT END OF TIME STEP  242, STRESS PERIOD    1
1
  VOLUMETRIC BUDGET FOR ENTIRE MODEL AT END OF TIME STEP  242, STRESS PERIOD   1
  ------------------------------------------------------------------------------

     CUMULATIVE VOLUMES      L**3       RATES FOR THIS TIME STEP      L**3/T
     ------------------                 ------------------------

           IN:                                      IN:
           ---                                      ---
             STORAGE =     9901113.0000               STORAGE =       23613.7734
       CONSTANT HEAD =           0.0000         CONSTANT HEAD =           0.0000
       RIVER LEAKAGE =     1425927.6250         RIVER LEAKAGE =        7587.1748
            RECHARGE =     3137338.2500              RECHARGE =          62.7146

            TOTAL IN =    14464379.0000              TOTAL IN =       31263.6641

          OUT:                                     OUT:
          ----                                     ----
             STORAGE =     5170246.5000               STORAGE =        7945.9849
       CONSTANT HEAD =           0.0000         CONSTANT HEAD =           0.0000
       RIVER LEAKAGE =     9279213.0000         RIVER LEAKAGE =       23427.4062
            RECHARGE =           0.0000              RECHARGE =           0.0000

           TOTAL OUT =    14449460.0000             TOTAL OUT =       31373.3906

            IN - OUT =       14919.0000              IN - OUT =        -109.7266

 PERCENT DISCREPANCY =           0.10     PERCENT DISCREPANCY =          -0.35






         TIME SUMMARY AT END OF TIME STEP  242 IN STRESS PERIOD    1
                    SECONDS     MINUTES      HOURS       DAYS        YEARS
                    -----------------------------------------------------------
   TIME STEP LENGTH  86400.      1440.0      24.000      1.0000     2.73785E-03
 STRESS PERIOD TIME 2.09088E+07 3.48480E+05  5808.0      242.00     0.66256    
         TOTAL TIME 2.09088E+07 3.48480E+05  5808.0      242.00     0.66256    
1
 
 SOLVING FOR HEAD 
                                                   Max.-Head-Change                        Max.-Flux-Residual
  Residual-Control   Outer-Iter.   Inner-Iter.     Column Row Layer    Max.-Head-Change    Column Row Layer    Max.-Flux-Residual            L2-New               L2-Old           Solver-Max-Delh
          0                 1           2            38   22     1       0.7127996801E-01      36   13    1      -0.5268728042E+03      0.3189113207E+04      0.7981213461E+02      0.7127996801E-01
          0                 2           2            38   22     1      -0.6155946794E-02      36   13    1       0.5268655921E+02      0.3172299336E+03      0.3189113207E+04     -0.6155946794E-02

    ------------------------------------------------
       NWT REQUIRED            2 OUTER ITERATIONS 
       AND A TOTAL OF          4 INNER ITERATIONS.
    ------------------------------------------------

 OUTPUT CONTROL FOR STRESS PERIOD    1   TIME STEP  243
    SAVE HEAD FOR ALL LAYERS
    SAVE DRAWDOWN FOR ALL LAYERS
    SAVE BUDGET
    PRINT BUDGET
 UBDSV1 SAVING "         STORAGE" ON UNIT   9 AT TIME STEP243, STRESS PERIOD   1
 UBDSV2 SAVING "   CONSTANT HEAD" ON UNIT   9 AT TIME STEP243, STRESS PERIOD   1
 UBDSV1 SAVING "FLOW RIGHT FACE " ON UNIT   9 AT TIME STEP243, STRESS PERIOD   1
 UBDSV1 SAVING "FLOW FRONT FACE " ON UNIT   9 AT TIME STEP243, STRESS PERIOD   1
 UBDSV4 SAVING "   RIVER LEAKAGE" ON UNIT   9 AT TIME STEP243, STRESS PERIOD   1
 UBDSV3 SAVING "        RECHARGE" ON UNIT   9 AT TIME STEP243, STRESS PERIOD   1

 HEAD WILL BE SAVED ON UNIT 5037 AT END OF TIME STEP  243, STRESS PERIOD    1

 DRAWDOWN WILL BE SAVED ON UNIT   38 AT END OF TIME STEP  243, STRESS PERIOD    1
1
  VOLUMETRIC BUDGET FOR ENTIRE MODEL AT END OF TIME STEP  243, STRESS PERIOD   1
  ------------------------------------------------------------------------------

     CUMULATIVE VOLUMES      L**3       RATES FOR THIS TIME STEP      L**3/T
     ------------------                 ------------------------

           IN:                                      IN:
           ---                                      ---
             STORAGE =     9932773.0000               STORAGE =       31660.0938
       CONSTANT HEAD =           0.0000         CONSTANT HEAD =           0.0000
       RIVER LEAKAGE =     1430033.6250         RIVER LEAKAGE =        4105.9810
            RECHARGE =     3137400.5000              RECHARGE =          62.1631

            TOTAL IN =    14500208.0000              TOTAL IN =       35828.2383

          OUT:                                     OUT:
          ----                                     ----
             STORAGE =     5171194.5000               STORAGE =         947.8583
       CONSTANT HEAD =           0.0000         CONSTANT HEAD =           0.0000
       RIVER LEAKAGE =     9313831.0000         RIVER LEAKAGE =       34617.6641
            RECHARGE =           0.0000              RECHARGE =           0.0000

           TOTAL OUT =    14485026.0000             TOTAL OUT =       35565.5234

            IN - OUT =       15182.0000              IN - OUT =         262.7148

 PERCENT DISCREPANCY =           0.10     PERCENT DISCREPANCY =           0.74






         TIME SUMMARY AT END OF TIME STEP  243 IN STRESS PERIOD    1
                    SECONDS     MINUTES      HOURS       DAYS        YEARS
                    -----------------------------------------------------------
   TIME STEP LENGTH  86400.      1440.0      24.000      1.0000     2.73785E-03
 STRESS PERIOD TIME 2.09952E+07 3.49920E+05  5832.0      243.00     0.66530    
         TOTAL TIME 2.09952E+07 3.49920E+05  5832.0      243.00     0.66530    
1
 
 SOLVING FOR HEAD 
                                                   Max.-Head-Change                        Max.-Flux-Residual
  Residual-Control   Outer-Iter.   Inner-Iter.     Column Row Layer    Max.-Head-Change    Column Row Layer    Max.-Flux-Residual            L2-New               L2-Old           Solver-Max-Delh
          0                 1           2            38   22     1       0.5685228864E-01      36   13    1       0.5267893997E+03      0.3127794800E+04      0.1586210463E+02      0.5685228864E-01
          0                 2           2            38   15     1      -0.2112428565E-01      38   15    1      -0.1562595999E+04      0.1593399529E+04      0.3127794800E+04     -0.2112428565E-01

    ------------------------------------------------
       NWT REQUIRED            2 OUTER ITERATIONS 
       AND A TOTAL OF          4 INNER ITERATIONS.
    ------------------------------------------------

 OUTPUT CONTROL FOR STRESS PERIOD    1   TIME STEP  244
    SAVE HEAD FOR ALL LAYERS
    SAVE DRAWDOWN FOR ALL LAYERS
    SAVE BUDGET
    PRINT BUDGET
 UBDSV1 SAVING "         STORAGE" ON UNIT   9 AT TIME STEP244, STRESS PERIOD   1
 UBDSV2 SAVING "   CONSTANT HEAD" ON UNIT   9 AT TIME STEP244, STRESS PERIOD   1
 UBDSV1 SAVING "FLOW RIGHT FACE " ON UNIT   9 AT TIME STEP244, STRESS PERIOD   1
 UBDSV1 SAVING "FLOW FRONT FACE " ON UNIT   9 AT TIME STEP244, STRESS PERIOD   1
 UBDSV4 SAVING "   RIVER LEAKAGE" ON UNIT   9 AT TIME STEP244, STRESS PERIOD   1
 UBDSV3 SAVING "        RECHARGE" ON UNIT   9 AT TIME STEP244, STRESS PERIOD   1

 HEAD WILL BE SAVED ON UNIT 5037 AT END OF TIME STEP  244, STRESS PERIOD    1

 DRAWDOWN WILL BE SAVED ON UNIT   38 AT END OF TIME STEP  244, STRESS PERIOD    1
1
  VOLUMETRIC BUDGET FOR ENTIRE MODEL AT END OF TIME STEP  244, STRESS PERIOD   1
  ------------------------------------------------------------------------------

     CUMULATIVE VOLUMES      L**3       RATES FOR THIS TIME STEP      L**3/T
     ------------------                 ------------------------

           IN:                                      IN:
           ---                                      ---
             STORAGE =     9956297.0000               STORAGE =       23523.5254
       CONSTANT HEAD =           0.0000         CONSTANT HEAD =           0.0000
       RIVER LEAKAGE =     1437631.7500         RIVER LEAKAGE =        7598.0903
            RECHARGE =     3137462.0000              RECHARGE =          61.6201

            TOTAL IN =    14531391.0000              TOTAL IN =       31183.2344

          OUT:                                     OUT:
          ----                                     ----
             STORAGE =     5179123.0000               STORAGE =        7928.3970
       CONSTANT HEAD =           0.0000         CONSTANT HEAD =           0.0000
       RIVER LEAKAGE =     9337196.0000         RIVER LEAKAGE =       23364.7949
            RECHARGE =           0.0000              RECHARGE =           0.0000

           TOTAL OUT =    14516319.0000             TOTAL OUT =       31293.1914

            IN - OUT =       15072.0000              IN - OUT =        -109.9570

 PERCENT DISCREPANCY =           0.10     PERCENT DISCREPANCY =          -0.35






         TIME SUMMARY AT END OF TIME STEP  244 IN STRESS PERIOD    1
                    SECONDS     MINUTES      HOURS       DAYS        YEARS
                    -----------------------------------------------------------
   TIME STEP LENGTH  86400.      1440.0      24.000      1.0000     2.73785E-03
 STRESS PERIOD TIME 2.10816E+07 3.51360E+05  5856.0      244.00     0.66804    
         TOTAL TIME 2.10816E+07 3.51360E+05  5856.0      244.00     0.66804    
1
 
 SOLVING FOR HEAD 
                                                   Max.-Head-Change                        Max.-Flux-Residual
  Residual-Control   Outer-Iter.   Inner-Iter.     Column Row Layer    Max.-Head-Change    Column Row Layer    Max.-Flux-Residual            L2-New               L2-Old           Solver-Max-Delh
          0                 1           2            38   22     1       0.4598505551E-01      36   13    1      -0.5268723382E+03      0.3184218051E+04      0.7967639473E+02      0.4598505551E-01
          0                 2           2            38   22     1      -0.3971440908E-02      36   13    1       0.5268651120E+02      0.3167428047E+03      0.3184218051E+04     -0.3971440908E-02

    ------------------------------------------------
       NWT REQUIRED            2 OUTER ITERATIONS 
       AND A TOTAL OF          4 INNER ITERATIONS.
    ------------------------------------------------

 OUTPUT CONTROL FOR STRESS PERIOD    1   TIME STEP  245
    SAVE HEAD FOR ALL LAYERS
    SAVE DRAWDOWN FOR ALL LAYERS
    SAVE BUDGET
    PRINT BUDGET
 UBDSV1 SAVING "         STORAGE" ON UNIT   9 AT TIME STEP245, STRESS PERIOD   1
 UBDSV2 SAVING "   CONSTANT HEAD" ON UNIT   9 AT TIME STEP245, STRESS PERIOD   1
 UBDSV1 SAVING "FLOW RIGHT FACE " ON UNIT   9 AT TIME STEP245, STRESS PERIOD   1
 UBDSV1 SAVING "FLOW FRONT FACE " ON UNIT   9 AT TIME STEP245, STRESS PERIOD   1
 UBDSV4 SAVING "   RIVER LEAKAGE" ON UNIT   9 AT TIME STEP245, STRESS PERIOD   1
 UBDSV3 SAVING "        RECHARGE" ON UNIT   9 AT TIME STEP245, STRESS PERIOD   1

 HEAD WILL BE SAVED ON UNIT 5037 AT END OF TIME STEP  245, STRESS PERIOD    1

 DRAWDOWN WILL BE SAVED ON UNIT   38 AT END OF TIME STEP  245, STRESS PERIOD    1
1
  VOLUMETRIC BUDGET FOR ENTIRE MODEL AT END OF TIME STEP  245, STRESS PERIOD   1
  ------------------------------------------------------------------------------

     CUMULATIVE VOLUMES      L**3       RATES FOR THIS TIME STEP      L**3/T
     ------------------                 ------------------------

           IN:                                      IN:
           ---                                      ---
             STORAGE =     9987860.0000               STORAGE =       31562.8320
       CONSTANT HEAD =           0.0000         CONSTANT HEAD =           0.0000
       RIVER LEAKAGE =     1441745.5000         RIVER LEAKAGE =        4113.8062
            RECHARGE =     3137523.0000              RECHARGE =          61.0853

            TOTAL IN =    14567129.0000              TOTAL IN =       35737.7227

          OUT:                                     OUT:
          ----                                     ----
             STORAGE =     5180045.5000               STORAGE =         922.5639
       CONSTANT HEAD =           0.0000         CONSTANT HEAD =           0.0000
       RIVER LEAKAGE =     9371749.0000         RIVER LEAKAGE =       34552.7812
            RECHARGE =           0.0000              RECHARGE =           0.0000

           TOTAL OUT =    14551794.0000             TOTAL OUT =       35475.3438

            IN - OUT =       15335.0000              IN - OUT =         262.3789

 PERCENT DISCREPANCY =           0.11     PERCENT DISCREPANCY =           0.74






         TIME SUMMARY AT END OF TIME STEP  245 IN STRESS PERIOD    1
                    SECONDS     MINUTES      HOURS       DAYS        YEARS
                    -----------------------------------------------------------
   TIME STEP LENGTH  86400.      1440.0      24.000      1.0000     2.73785E-03
 STRESS PERIOD TIME 2.11680E+07 3.52800E+05  5880.0      245.00     0.67077    
         TOTAL TIME 2.11680E+07 3.52800E+05  5880.0      245.00     0.67077    
1
 
 SOLVING FOR HEAD 
                                                   Max.-Head-Change                        Max.-Flux-Residual
  Residual-Control   Outer-Iter.   Inner-Iter.     Column Row Layer    Max.-Head-Change    Column Row Layer    Max.-Flux-Residual            L2-New               L2-Old           Solver-Max-Delh
          0                 1           2            38   22     1       0.3768034014E-01      36   13    1       0.5267892948E+03      0.3123936134E+04      0.1583793395E+02      0.3768034014E-01
          0                 2           2            38   15     1      -0.2108830506E-01      38   15    1      -0.1559934378E+04      0.1590713925E+04      0.3123936134E+04     -0.2108830506E-01

    ------------------------------------------------
       NWT REQUIRED            2 OUTER ITERATIONS 
       AND A TOTAL OF          4 INNER ITERATIONS.
    ------------------------------------------------

 OUTPUT CONTROL FOR STRESS PERIOD    1   TIME STEP  246
    SAVE HEAD FOR ALL LAYERS
    SAVE DRAWDOWN FOR ALL LAYERS
    SAVE BUDGET
    PRINT BUDGET
 UBDSV1 SAVING "         STORAGE" ON UNIT   9 AT TIME STEP246, STRESS PERIOD   1
 UBDSV2 SAVING "   CONSTANT HEAD" ON UNIT   9 AT TIME STEP246, STRESS PERIOD   1
 UBDSV1 SAVING "FLOW RIGHT FACE " ON UNIT   9 AT TIME STEP246, STRESS PERIOD   1
 UBDSV1 SAVING "FLOW FRONT FACE " ON UNIT   9 AT TIME STEP246, STRESS PERIOD   1
 UBDSV4 SAVING "   RIVER LEAKAGE" ON UNIT   9 AT TIME STEP246, STRESS PERIOD   1
 UBDSV3 SAVING "        RECHARGE" ON UNIT   9 AT TIME STEP246, STRESS PERIOD   1

 HEAD WILL BE SAVED ON UNIT 5037 AT END OF TIME STEP  246, STRESS PERIOD    1

 DRAWDOWN WILL BE SAVED ON UNIT   38 AT END OF TIME STEP  246, STRESS PERIOD    1
1
  VOLUMETRIC BUDGET FOR ENTIRE MODEL AT END OF TIME STEP  246, STRESS PERIOD   1
  ------------------------------------------------------------------------------

     CUMULATIVE VOLUMES      L**3       RATES FOR THIS TIME STEP      L**3/T
     ------------------                 ------------------------

           IN:                                      IN:
           ---                                      ---
             STORAGE =    10011296.0000               STORAGE =       23435.9805
       CONSTANT HEAD =           0.0000         CONSTANT HEAD =           0.0000
       RIVER LEAKAGE =     1449354.7500         RIVER LEAKAGE =        7609.2319
            RECHARGE =     3137583.5000              RECHARGE =          60.5587

            TOTAL IN =    14598234.0000              TOTAL IN =       31105.7715

          OUT:                                     OUT:
          ----                                     ----
             STORAGE =     5187958.5000               STORAGE =        7912.8828
       CONSTANT HEAD =           0.0000         CONSTANT HEAD =           0.0000
       RIVER LEAKAGE =     9395052.0000         RIVER LEAKAGE =       23303.0703
            RECHARGE =           0.0000              RECHARGE =           0.0000

           TOTAL OUT =    14583010.0000             TOTAL OUT =       31215.9531

            IN - OUT =       15224.0000              IN - OUT =        -110.1816

 PERCENT DISCREPANCY =           0.10     PERCENT DISCREPANCY =          -0.35






         TIME SUMMARY AT END OF TIME STEP  246 IN STRESS PERIOD    1
                    SECONDS     MINUTES      HOURS       DAYS        YEARS
                    -----------------------------------------------------------
   TIME STEP LENGTH  86400.      1440.0      24.000      1.0000     2.73785E-03
 STRESS PERIOD TIME 2.12544E+07 3.54240E+05  5904.0      246.00     0.67351    
         TOTAL TIME 2.12544E+07 3.54240E+05  5904.0      246.00     0.67351    
1
 
 SOLVING FOR HEAD 
                                                   Max.-Head-Change                        Max.-Flux-Residual
  Residual-Control   Outer-Iter.   Inner-Iter.     Column Row Layer    Max.-Head-Change    Column Row Layer    Max.-Flux-Residual            L2-New               L2-Old           Solver-Max-Delh
          0                 1           2            38   22     1       0.3127665569E-01      36   13    1      -0.5268720065E+03      0.3179466472E+04      0.7954209904E+02      0.3127665569E-01
          0                 2           2            38   22     1      -0.2701183309E-02      36   13    1       0.5268647665E+02      0.3162701896E+03      0.3179466472E+04     -0.2701183309E-02

    ------------------------------------------------
       NWT REQUIRED            2 OUTER ITERATIONS 
       AND A TOTAL OF          4 INNER ITERATIONS.
    ------------------------------------------------

 OUTPUT CONTROL FOR STRESS PERIOD    1   TIME STEP  247
    SAVE HEAD FOR ALL LAYERS
    SAVE DRAWDOWN FOR ALL LAYERS
    SAVE BUDGET
    PRINT BUDGET
 UBDSV1 SAVING "         STORAGE" ON UNIT   9 AT TIME STEP247, STRESS PERIOD   1
 UBDSV2 SAVING "   CONSTANT HEAD" ON UNIT   9 AT TIME STEP247, STRESS PERIOD   1
 UBDSV1 SAVING "FLOW RIGHT FACE " ON UNIT   9 AT TIME STEP247, STRESS PERIOD   1
 UBDSV1 SAVING "FLOW FRONT FACE " ON UNIT   9 AT TIME STEP247, STRESS PERIOD   1
 UBDSV4 SAVING "   RIVER LEAKAGE" ON UNIT   9 AT TIME STEP247, STRESS PERIOD   1
 UBDSV3 SAVING "        RECHARGE" ON UNIT   9 AT TIME STEP247, STRESS PERIOD   1

 HEAD WILL BE SAVED ON UNIT 5037 AT END OF TIME STEP  247, STRESS PERIOD    1

 DRAWDOWN WILL BE SAVED ON UNIT   38 AT END OF TIME STEP  247, STRESS PERIOD    1
1
  VOLUMETRIC BUDGET FOR ENTIRE MODEL AT END OF TIME STEP  247, STRESS PERIOD   1
  ------------------------------------------------------------------------------

     CUMULATIVE VOLUMES      L**3       RATES FOR THIS TIME STEP      L**3/T
     ------------------                 ------------------------

           IN:                                      IN:
           ---                                      ---
             STORAGE =    10042764.0000               STORAGE =       31468.1016
       CONSTANT HEAD =           0.0000         CONSTANT HEAD =           0.0000
       RIVER LEAKAGE =     1453476.3750         RIVER LEAKAGE =        4121.5801
            RECHARGE =     3137643.5000              RECHARGE =          60.0400

            TOTAL IN =    14633884.0000              TOTAL IN =       35649.7188

          OUT:                                     OUT:
          ----                                     ----
             STORAGE =     5188857.5000               STORAGE =         899.1832
       CONSTANT HEAD =           0.0000         CONSTANT HEAD =           0.0000
       RIVER LEAKAGE =     9429540.0000         RIVER LEAKAGE =       34488.4961
            RECHARGE =           0.0000              RECHARGE =           0.0000

           TOTAL OUT =    14618398.0000             TOTAL OUT =       35387.6797

            IN - OUT =       15486.0000              IN - OUT =         262.0391

 PERCENT DISCREPANCY =           0.11     PERCENT DISCREPANCY =           0.74






         TIME SUMMARY AT END OF TIME STEP  247 IN STRESS PERIOD    1
                    SECONDS     MINUTES      HOURS       DAYS        YEARS
                    -----------------------------------------------------------
   TIME STEP LENGTH  86400.      1440.0      24.000      1.0000     2.73785E-03
 STRESS PERIOD TIME 2.13408E+07 3.55680E+05  5928.0      247.00     0.67625    
         TOTAL TIME 2.13408E+07 3.55680E+05  5928.0      247.00     0.67625    
1
 
 SOLVING FOR HEAD 
                                                   Max.-Head-Change                        Max.-Flux-Residual
  Residual-Control   Outer-Iter.   Inner-Iter.     Column Row Layer    Max.-Head-Change    Column Row Layer    Max.-Flux-Residual            L2-New               L2-Old           Solver-Max-Delh
          0                 1           2            38   15     1       0.2637946407E-01      36   13    1       0.5267901089E+03      0.3120177785E+04      0.1581451251E+02      0.2637946407E-01
          0                 2           2            38   15     1      -0.2105257587E-01      38   15    1      -0.1557291352E+04      0.1588051513E+04      0.3120177785E+04     -0.2105257587E-01

    ------------------------------------------------
       NWT REQUIRED            2 OUTER ITERATIONS 
       AND A TOTAL OF          4 INNER ITERATIONS.
    ------------------------------------------------

 OUTPUT CONTROL FOR STRESS PERIOD    1   TIME STEP  248
    SAVE HEAD FOR ALL LAYERS
    SAVE DRAWDOWN FOR ALL LAYERS
    SAVE BUDGET
    PRINT BUDGET
 UBDSV1 SAVING "         STORAGE" ON UNIT   9 AT TIME STEP248, STRESS PERIOD   1
 UBDSV2 SAVING "   CONSTANT HEAD" ON UNIT   9 AT TIME STEP248, STRESS PERIOD   1
 UBDSV1 SAVING "FLOW RIGHT FACE " ON UNIT   9 AT TIME STEP248, STRESS PERIOD   1
 UBDSV1 SAVING "FLOW FRONT FACE " ON UNIT   9 AT TIME STEP248, STRESS PERIOD   1
 UBDSV4 SAVING "   RIVER LEAKAGE" ON UNIT   9 AT TIME STEP248, STRESS PERIOD   1
 UBDSV3 SAVING "        RECHARGE" ON UNIT   9 AT TIME STEP248, STRESS PERIOD   1

 HEAD WILL BE SAVED ON UNIT 5037 AT END OF TIME STEP  248, STRESS PERIOD    1

 DRAWDOWN WILL BE SAVED ON UNIT   38 AT END OF TIME STEP  248, STRESS PERIOD    1
1
  VOLUMETRIC BUDGET FOR ENTIRE MODEL AT END OF TIME STEP  248, STRESS PERIOD   1
  ------------------------------------------------------------------------------

     CUMULATIVE VOLUMES      L**3       RATES FOR THIS TIME STEP      L**3/T
     ------------------                 ------------------------

           IN:                                      IN:
           ---                                      ---
             STORAGE =    10066115.0000               STORAGE =       23350.8789
       CONSTANT HEAD =           0.0000         CONSTANT HEAD =           0.0000
       RIVER LEAKAGE =     1461096.6250         RIVER LEAKAGE =        7620.2842
            RECHARGE =     3137703.0000              RECHARGE =          59.5291

            TOTAL IN =    14664915.0000              TOTAL IN =       31030.6934

          OUT:                                     OUT:
          ----                                     ----
             STORAGE =     5196756.5000               STORAGE =        7898.8076
       CONSTANT HEAD =           0.0000         CONSTANT HEAD =           0.0000
       RIVER LEAKAGE =     9452782.0000         RIVER LEAKAGE =       23241.9121
            RECHARGE =           0.0000              RECHARGE =           0.0000

           TOTAL OUT =    14649538.0000             TOTAL OUT =       31140.7188

            IN - OUT =       15377.0000              IN - OUT =        -110.0254

 PERCENT DISCREPANCY =           0.10     PERCENT DISCREPANCY =          -0.35






         TIME SUMMARY AT END OF TIME STEP  248 IN STRESS PERIOD    1
                    SECONDS     MINUTES      HOURS       DAYS        YEARS
                    -----------------------------------------------------------
   TIME STEP LENGTH  86400.      1440.0      24.000      1.0000     2.73785E-03
 STRESS PERIOD TIME 2.14272E+07 3.57120E+05  5952.0      248.00     0.67899    
         TOTAL TIME 2.14272E+07 3.57120E+05  5952.0      248.00     0.67899    
1
 
 SOLVING FOR HEAD 
                                                   Max.-Head-Change                        Max.-Flux-Residual
  Residual-Control   Outer-Iter.   Inner-Iter.     Column Row Layer    Max.-Head-Change    Column Row Layer    Max.-Flux-Residual            L2-New               L2-Old           Solver-Max-Delh
          0                 1           2            32   19     1      -0.3076790902E-01      36   13    1      -0.5268720251E+03      0.3174817435E+04      0.7940972931E+02     -0.3076790902E-01
          0                 2           2            32   19     1       0.2656301808E-02      36   13    1       0.5268647717E+02      0.3158095792E+03      0.3174817435E+04      0.2656301808E-02

    ------------------------------------------------
       NWT REQUIRED            2 OUTER ITERATIONS 
       AND A TOTAL OF          4 INNER ITERATIONS.
    ------------------------------------------------

 OUTPUT CONTROL FOR STRESS PERIOD    1   TIME STEP  249
    SAVE HEAD FOR ALL LAYERS
    SAVE DRAWDOWN FOR ALL LAYERS
    SAVE BUDGET
    PRINT BUDGET
 UBDSV1 SAVING "         STORAGE" ON UNIT   9 AT TIME STEP249, STRESS PERIOD   1
 UBDSV2 SAVING "   CONSTANT HEAD" ON UNIT   9 AT TIME STEP249, STRESS PERIOD   1
 UBDSV1 SAVING "FLOW RIGHT FACE " ON UNIT   9 AT TIME STEP249, STRESS PERIOD   1
 UBDSV1 SAVING "FLOW FRONT FACE " ON UNIT   9 AT TIME STEP249, STRESS PERIOD   1
 UBDSV4 SAVING "   RIVER LEAKAGE" ON UNIT   9 AT TIME STEP249, STRESS PERIOD   1
 UBDSV3 SAVING "        RECHARGE" ON UNIT   9 AT TIME STEP249, STRESS PERIOD   1

 HEAD WILL BE SAVED ON UNIT 5037 AT END OF TIME STEP  249, STRESS PERIOD    1

 DRAWDOWN WILL BE SAVED ON UNIT   38 AT END OF TIME STEP  249, STRESS PERIOD    1
1
  VOLUMETRIC BUDGET FOR ENTIRE MODEL AT END OF TIME STEP  249, STRESS PERIOD   1
  ------------------------------------------------------------------------------

     CUMULATIVE VOLUMES      L**3       RATES FOR THIS TIME STEP      L**3/T
     ------------------                 ------------------------

           IN:                                      IN:
           ---                                      ---
             STORAGE =    10097490.0000               STORAGE =       31374.9121
       CONSTANT HEAD =           0.0000         CONSTANT HEAD =           0.0000
       RIVER LEAKAGE =     1465225.8750         RIVER LEAKAGE =        4129.2334
            RECHARGE =     3137762.0000              RECHARGE =          59.0258

            TOTAL IN =    14700478.0000              TOTAL IN =       35563.1719

          OUT:                                     OUT:
          ----                                     ----
             STORAGE =     5197634.0000               STORAGE =         877.5167
       CONSTANT HEAD =           0.0000         CONSTANT HEAD =           0.0000
       RIVER LEAKAGE =     9487207.0000         RIVER LEAKAGE =       34424.8516
            RECHARGE =           0.0000              RECHARGE =           0.0000

           TOTAL OUT =    14684841.0000             TOTAL OUT =       35302.3672

            IN - OUT =       15637.0000              IN - OUT =         260.8047

 PERCENT DISCREPANCY =           0.11     PERCENT DISCREPANCY =           0.74






         TIME SUMMARY AT END OF TIME STEP  249 IN STRESS PERIOD    1
                    SECONDS     MINUTES      HOURS       DAYS        YEARS
                    -----------------------------------------------------------
   TIME STEP LENGTH  86400.      1440.0      24.000      1.0000     2.73785E-03
 STRESS PERIOD TIME 2.15136E+07 3.58560E+05  5976.0      249.00     0.68172    
         TOTAL TIME 2.15136E+07 3.58560E+05  5976.0      249.00     0.68172    
1
 
 SOLVING FOR HEAD 
                                                   Max.-Head-Change                        Max.-Flux-Residual
  Residual-Control   Outer-Iter.   Inner-Iter.     Column Row Layer    Max.-Head-Change    Column Row Layer    Max.-Flux-Residual            L2-New               L2-Old           Solver-Max-Delh
          0                 1           2            38   15     1       0.2636198077E-01      36   13    1       0.5267903991E+03      0.3116495163E+04      0.1581759036E+02      0.2636198077E-01
          0                 2           2            38   15     1      -0.2101703665E-01      38   15    1      -0.1554662373E+04      0.1585398700E+04      0.3116495163E+04     -0.2101703665E-01

    ------------------------------------------------
       NWT REQUIRED            2 OUTER ITERATIONS 
       AND A TOTAL OF          4 INNER ITERATIONS.
    ------------------------------------------------

 OUTPUT CONTROL FOR STRESS PERIOD    1   TIME STEP  250
    SAVE HEAD FOR ALL LAYERS
    SAVE DRAWDOWN FOR ALL LAYERS
    SAVE BUDGET
    PRINT BUDGET
 UBDSV1 SAVING "         STORAGE" ON UNIT   9 AT TIME STEP250, STRESS PERIOD   1
 UBDSV2 SAVING "   CONSTANT HEAD" ON UNIT   9 AT TIME STEP250, STRESS PERIOD   1
 UBDSV1 SAVING "FLOW RIGHT FACE " ON UNIT   9 AT TIME STEP250, STRESS PERIOD   1
 UBDSV1 SAVING "FLOW FRONT FACE " ON UNIT   9 AT TIME STEP250, STRESS PERIOD   1
 UBDSV4 SAVING "   RIVER LEAKAGE" ON UNIT   9 AT TIME STEP250, STRESS PERIOD   1
 UBDSV3 SAVING "        RECHARGE" ON UNIT   9 AT TIME STEP250, STRESS PERIOD   1

 HEAD WILL BE SAVED ON UNIT 5037 AT END OF TIME STEP  250, STRESS PERIOD    1

 DRAWDOWN WILL BE SAVED ON UNIT   38 AT END OF TIME STEP  250, STRESS PERIOD    1
1
  VOLUMETRIC BUDGET FOR ENTIRE MODEL AT END OF TIME STEP  250, STRESS PERIOD   1
  ------------------------------------------------------------------------------

     CUMULATIVE VOLUMES      L**3       RATES FOR THIS TIME STEP      L**3/T
     ------------------                 ------------------------

           IN:                                      IN:
           ---                                      ---
             STORAGE =    10120757.0000               STORAGE =       23266.8965
       CONSTANT HEAD =           0.0000         CONSTANT HEAD =           0.0000
       RIVER LEAKAGE =     1472857.0000         RIVER LEAKAGE =        7631.1440
            RECHARGE =     3137820.5000              RECHARGE =          58.5299

            TOTAL IN =    14731434.0000              TOTAL IN =       30956.5703

          OUT:                                     OUT:
          ----                                     ----
             STORAGE =     5205520.5000               STORAGE =        7886.7358
       CONSTANT HEAD =           0.0000         CONSTANT HEAD =           0.0000
       RIVER LEAKAGE =     9510388.0000         RIVER LEAKAGE =       23181.4141
            RECHARGE =           0.0000              RECHARGE =           0.0000

           TOTAL OUT =    14715908.0000             TOTAL OUT =       31068.1504

            IN - OUT =       15526.0000              IN - OUT =        -111.5801

 PERCENT DISCREPANCY =           0.11     PERCENT DISCREPANCY =          -0.36






         TIME SUMMARY AT END OF TIME STEP  250 IN STRESS PERIOD    1
                    SECONDS     MINUTES      HOURS       DAYS        YEARS
                    -----------------------------------------------------------
   TIME STEP LENGTH  86400.      1440.0      24.000      1.0000     2.73785E-03
 STRESS PERIOD TIME 2.16000E+07 3.60000E+05  6000.0      250.00     0.68446    
         TOTAL TIME 2.16000E+07 3.60000E+05  6000.0      250.00     0.68446    
1
 
 SOLVING FOR HEAD 
                                                   Max.-Head-Change                        Max.-Flux-Residual
  Residual-Control   Outer-Iter.   Inner-Iter.     Column Row Layer    Max.-Head-Change    Column Row Layer    Max.-Flux-Residual            L2-New               L2-Old           Solver-Max-Delh
          0                 1           2            32   19     1      -0.3043855807E-01      36   13    1      -0.5268711761E+03      0.3170258718E+04      0.7928197055E+02     -0.3043855807E-01
          0                 2           2            32   19     1       0.2627878174E-02      36   13    1       0.5268639096E+02      0.3153584040E+03      0.3170258718E+04      0.2627878174E-02

    ------------------------------------------------
       NWT REQUIRED            2 OUTER ITERATIONS 
       AND A TOTAL OF          4 INNER ITERATIONS.
    ------------------------------------------------

 OUTPUT CONTROL FOR STRESS PERIOD    1   TIME STEP  251
    SAVE HEAD FOR ALL LAYERS
    SAVE DRAWDOWN FOR ALL LAYERS
    SAVE BUDGET
    PRINT BUDGET
 UBDSV1 SAVING "         STORAGE" ON UNIT   9 AT TIME STEP251, STRESS PERIOD   1
 UBDSV2 SAVING "   CONSTANT HEAD" ON UNIT   9 AT TIME STEP251, STRESS PERIOD   1
 UBDSV1 SAVING "FLOW RIGHT FACE " ON UNIT   9 AT TIME STEP251, STRESS PERIOD   1
 UBDSV1 SAVING "FLOW FRONT FACE " ON UNIT   9 AT TIME STEP251, STRESS PERIOD   1
 UBDSV4 SAVING "   RIVER LEAKAGE" ON UNIT   9 AT TIME STEP251, STRESS PERIOD   1
 UBDSV3 SAVING "        RECHARGE" ON UNIT   9 AT TIME STEP251, STRESS PERIOD   1

 HEAD WILL BE SAVED ON UNIT 5037 AT END OF TIME STEP  251, STRESS PERIOD    1

 DRAWDOWN WILL BE SAVED ON UNIT   38 AT END OF TIME STEP  251, STRESS PERIOD    1
1
  VOLUMETRIC BUDGET FOR ENTIRE MODEL AT END OF TIME STEP  251, STRESS PERIOD   1
  ------------------------------------------------------------------------------

     CUMULATIVE VOLUMES      L**3       RATES FOR THIS TIME STEP      L**3/T
     ------------------                 ------------------------

           IN:                                      IN:
           ---                                      ---
             STORAGE =    10152042.0000               STORAGE =       31285.2363
       CONSTANT HEAD =           0.0000         CONSTANT HEAD =           0.0000
       RIVER LEAKAGE =     1476993.7500         RIVER LEAKAGE =        4136.7534
            RECHARGE =     3137878.5000              RECHARGE =          58.0414

            TOTAL IN =    14766914.0000              TOTAL IN =       35480.0312

          OUT:                                     OUT:
          ----                                     ----
             STORAGE =     5206378.5000               STORAGE =         858.1784
       CONSTANT HEAD =           0.0000         CONSTANT HEAD =           0.0000
       RIVER LEAKAGE =     9544750.0000         RIVER LEAKAGE =       34361.8320
            RECHARGE =           0.0000              RECHARGE =           0.0000

           TOTAL OUT =    14751128.0000             TOTAL OUT =       35220.0117

            IN - OUT =       15786.0000              IN - OUT =         260.0195

 PERCENT DISCREPANCY =           0.11     PERCENT DISCREPANCY =           0.74






         TIME SUMMARY AT END OF TIME STEP  251 IN STRESS PERIOD    1
                    SECONDS     MINUTES      HOURS       DAYS        YEARS
                    -----------------------------------------------------------
   TIME STEP LENGTH  86400.      1440.0      24.000      1.0000     2.73785E-03
 STRESS PERIOD TIME 2.16864E+07 3.61440E+05  6024.0      251.00     0.68720    
         TOTAL TIME 2.16864E+07 3.61440E+05  6024.0      251.00     0.68720    
1
 
 SOLVING FOR HEAD 
                                                   Max.-Head-Change                        Max.-Flux-Residual
  Residual-Control   Outer-Iter.   Inner-Iter.     Column Row Layer    Max.-Head-Change    Column Row Layer    Max.-Flux-Residual            L2-New               L2-Old           Solver-Max-Delh
          0                 1           2            38   15     1       0.2634460577E-01      36   13    1       0.5267903327E+03      0.3112881353E+04      0.1582753714E+02      0.2634460577E-01
          0                 2           2            38   15     1      -0.2098149559E-01      38   15    1      -0.1552033266E+04      0.1582750170E+04      0.3112881353E+04     -0.2098149559E-01

    ------------------------------------------------
       NWT REQUIRED            2 OUTER ITERATIONS 
       AND A TOTAL OF          4 INNER ITERATIONS.
    ------------------------------------------------

 OUTPUT CONTROL FOR STRESS PERIOD    1   TIME STEP  252
    SAVE HEAD FOR ALL LAYERS
    SAVE DRAWDOWN FOR ALL LAYERS
    SAVE BUDGET
    PRINT BUDGET
 UBDSV1 SAVING "         STORAGE" ON UNIT   9 AT TIME STEP252, STRESS PERIOD   1
 UBDSV2 SAVING "   CONSTANT HEAD" ON UNIT   9 AT TIME STEP252, STRESS PERIOD   1
 UBDSV1 SAVING "FLOW RIGHT FACE " ON UNIT   9 AT TIME STEP252, STRESS PERIOD   1
 UBDSV1 SAVING "FLOW FRONT FACE " ON UNIT   9 AT TIME STEP252, STRESS PERIOD   1
 UBDSV4 SAVING "   RIVER LEAKAGE" ON UNIT   9 AT TIME STEP252, STRESS PERIOD   1
 UBDSV3 SAVING "        RECHARGE" ON UNIT   9 AT TIME STEP252, STRESS PERIOD   1

 HEAD WILL BE SAVED ON UNIT 5037 AT END OF TIME STEP  252, STRESS PERIOD    1

 DRAWDOWN WILL BE SAVED ON UNIT   38 AT END OF TIME STEP  252, STRESS PERIOD    1
1
  VOLUMETRIC BUDGET FOR ENTIRE MODEL AT END OF TIME STEP  252, STRESS PERIOD   1
  ------------------------------------------------------------------------------

     CUMULATIVE VOLUMES      L**3       RATES FOR THIS TIME STEP      L**3/T
     ------------------                 ------------------------

           IN:                                      IN:
           ---                                      ---
             STORAGE =    10175228.0000               STORAGE =       23185.8613
       CONSTANT HEAD =           0.0000         CONSTANT HEAD =           0.0000
       RIVER LEAKAGE =     1484635.6250         RIVER LEAKAGE =        7641.9023
            RECHARGE =     3137936.0000              RECHARGE =          57.5601

            TOTAL IN =    14797800.0000              TOTAL IN =       30885.3242

          OUT:                                     OUT:
          ----                                     ----
             STORAGE =     5214254.5000               STORAGE =        7876.0840
       CONSTANT HEAD =           0.0000         CONSTANT HEAD =           0.0000
       RIVER LEAKAGE =     9567871.0000         RIVER LEAKAGE =       23121.4805
            RECHARGE =           0.0000              RECHARGE =           0.0000

           TOTAL OUT =    14782126.0000             TOTAL OUT =       30997.5645

            IN - OUT =       15674.0000              IN - OUT =        -112.2402

 PERCENT DISCREPANCY =           0.11     PERCENT DISCREPANCY =          -0.36






         TIME SUMMARY AT END OF TIME STEP  252 IN STRESS PERIOD    1
                    SECONDS     MINUTES      HOURS       DAYS        YEARS
                    -----------------------------------------------------------
   TIME STEP LENGTH  86400.      1440.0      24.000      1.0000     2.73785E-03
 STRESS PERIOD TIME 2.17728E+07 3.62880E+05  6048.0      252.00     0.68994    
         TOTAL TIME 2.17728E+07 3.62880E+05  6048.0      252.00     0.68994    
1
 
 SOLVING FOR HEAD 
                                                   Max.-Head-Change                        Max.-Flux-Residual
  Residual-Control   Outer-Iter.   Inner-Iter.     Column Row Layer    Max.-Head-Change    Column Row Layer    Max.-Flux-Residual            L2-New               L2-Old           Solver-Max-Delh
          0                 1           2            32   19     1      -0.3011750542E-01      36   13    1      -0.5268708537E+03      0.3165785928E+04      0.7915609391E+02     -0.3011750542E-01
          0                 2           2            32   19     1       0.2600170476E-02      36   13    1       0.5268635745E+02      0.3149166622E+03      0.3165785928E+04      0.2600170476E-02

    ------------------------------------------------
       NWT REQUIRED            2 OUTER ITERATIONS 
       AND A TOTAL OF          4 INNER ITERATIONS.
    ------------------------------------------------

 OUTPUT CONTROL FOR STRESS PERIOD    1   TIME STEP  253
    SAVE HEAD FOR ALL LAYERS
    SAVE DRAWDOWN FOR ALL LAYERS
    SAVE BUDGET
    PRINT BUDGET
 UBDSV1 SAVING "         STORAGE" ON UNIT   9 AT TIME STEP253, STRESS PERIOD   1
 UBDSV2 SAVING "   CONSTANT HEAD" ON UNIT   9 AT TIME STEP253, STRESS PERIOD   1
 UBDSV1 SAVING "FLOW RIGHT FACE " ON UNIT   9 AT TIME STEP253, STRESS PERIOD   1
 UBDSV1 SAVING "FLOW FRONT FACE " ON UNIT   9 AT TIME STEP253, STRESS PERIOD   1
 UBDSV4 SAVING "   RIVER LEAKAGE" ON UNIT   9 AT TIME STEP253, STRESS PERIOD   1
 UBDSV3 SAVING "        RECHARGE" ON UNIT   9 AT TIME STEP253, STRESS PERIOD   1

 HEAD WILL BE SAVED ON UNIT 5037 AT END OF TIME STEP  253, STRESS PERIOD    1

 DRAWDOWN WILL BE SAVED ON UNIT   38 AT END OF TIME STEP  253, STRESS PERIOD    1
1
  VOLUMETRIC BUDGET FOR ENTIRE MODEL AT END OF TIME STEP  253, STRESS PERIOD   1
  ------------------------------------------------------------------------------

     CUMULATIVE VOLUMES      L**3       RATES FOR THIS TIME STEP      L**3/T
     ------------------                 ------------------------

           IN:                                      IN:
           ---                                      ---
             STORAGE =    10206425.0000               STORAGE =       31197.1348
       CONSTANT HEAD =           0.0000         CONSTANT HEAD =           0.0000
       RIVER LEAKAGE =     1488779.8750         RIVER LEAKAGE =        4144.2100
            RECHARGE =     3137993.0000              RECHARGE =          57.0858

            TOTAL IN =    14833198.0000              TOTAL IN =       35398.4297

          OUT:                                     OUT:
          ----                                     ----
             STORAGE =     5215094.5000               STORAGE =         839.7740
       CONSTANT HEAD =           0.0000         CONSTANT HEAD =           0.0000
       RIVER LEAKAGE =     9602170.0000         RIVER LEAKAGE =       34299.3984
            RECHARGE =           0.0000              RECHARGE =           0.0000

           TOTAL OUT =    14817264.0000             TOTAL OUT =       35139.1719

            IN - OUT =       15934.0000              IN - OUT =         259.2578

 PERCENT DISCREPANCY =           0.11     PERCENT DISCREPANCY =           0.74






         TIME SUMMARY AT END OF TIME STEP  253 IN STRESS PERIOD    1
                    SECONDS     MINUTES      HOURS       DAYS        YEARS
                    -----------------------------------------------------------
   TIME STEP LENGTH  86400.      1440.0      24.000      1.0000     2.73785E-03
 STRESS PERIOD TIME 2.18592E+07 3.64320E+05  6072.0      253.00     0.69268    
         TOTAL TIME 2.18592E+07 3.64320E+05  6072.0      253.00     0.69268    
1
 
 SOLVING FOR HEAD 
                                                   Max.-Head-Change                        Max.-Flux-Residual
  Residual-Control   Outer-Iter.   Inner-Iter.     Column Row Layer    Max.-Head-Change    Column Row Layer    Max.-Flux-Residual            L2-New               L2-Old           Solver-Max-Delh
          0                 1           2            38   15     1       0.2632732473E-01      36   13    1       0.5267911321E+03      0.3109335668E+04      0.1584919649E+02      0.2632732473E-01
          0                 2           2            38   15     1      -0.2094632986E-01      38   15    1      -0.1549431915E+04      0.1580130335E+04      0.3109335668E+04     -0.2094632986E-01

    ------------------------------------------------
       NWT REQUIRED            2 OUTER ITERATIONS 
       AND A TOTAL OF          4 INNER ITERATIONS.
    ------------------------------------------------

 OUTPUT CONTROL FOR STRESS PERIOD    1   TIME STEP  254
    SAVE HEAD FOR ALL LAYERS
    SAVE DRAWDOWN FOR ALL LAYERS
    SAVE BUDGET
    PRINT BUDGET
 UBDSV1 SAVING "         STORAGE" ON UNIT   9 AT TIME STEP254, STRESS PERIOD   1
 UBDSV2 SAVING "   CONSTANT HEAD" ON UNIT   9 AT TIME STEP254, STRESS PERIOD   1
 UBDSV1 SAVING "FLOW RIGHT FACE " ON UNIT   9 AT TIME STEP254, STRESS PERIOD   1
 UBDSV1 SAVING "FLOW FRONT FACE " ON UNIT   9 AT TIME STEP254, STRESS PERIOD   1
 UBDSV4 SAVING "   RIVER LEAKAGE" ON UNIT   9 AT TIME STEP254, STRESS PERIOD   1
 UBDSV3 SAVING "        RECHARGE" ON UNIT   9 AT TIME STEP254, STRESS PERIOD   1

 HEAD WILL BE SAVED ON UNIT 5037 AT END OF TIME STEP  254, STRESS PERIOD    1

 DRAWDOWN WILL BE SAVED ON UNIT   38 AT END OF TIME STEP  254, STRESS PERIOD    1
1
  VOLUMETRIC BUDGET FOR ENTIRE MODEL AT END OF TIME STEP  254, STRESS PERIOD   1
  ------------------------------------------------------------------------------

     CUMULATIVE VOLUMES      L**3       RATES FOR THIS TIME STEP      L**3/T
     ------------------                 ------------------------

           IN:                                      IN:
           ---                                      ---
             STORAGE =    10229531.0000               STORAGE =       23106.1250
       CONSTANT HEAD =           0.0000         CONSTANT HEAD =           0.0000
       RIVER LEAKAGE =     1496432.3750         RIVER LEAKAGE =        7652.5547
            RECHARGE =     3138049.5000              RECHARGE =          56.6184

            TOTAL IN =    14864012.0000              TOTAL IN =       30815.2988

          OUT:                                     OUT:
          ----                                     ----
             STORAGE =     5222960.5000               STORAGE =        7866.1060
       CONSTANT HEAD =           0.0000         CONSTANT HEAD =           0.0000
       RIVER LEAKAGE =     9625232.0000         RIVER LEAKAGE =       23062.0801
            RECHARGE =           0.0000              RECHARGE =           0.0000

           TOTAL OUT =    14848192.0000             TOTAL OUT =       30928.1855

            IN - OUT =       15820.0000              IN - OUT =        -112.8867

 PERCENT DISCREPANCY =           0.11     PERCENT DISCREPANCY =          -0.37






         TIME SUMMARY AT END OF TIME STEP  254 IN STRESS PERIOD    1
                    SECONDS     MINUTES      HOURS       DAYS        YEARS
                    -----------------------------------------------------------
   TIME STEP LENGTH  86400.      1440.0      24.000      1.0000     2.73785E-03
 STRESS PERIOD TIME 2.19456E+07 3.65760E+05  6096.0      254.00     0.69541    
         TOTAL TIME 2.19456E+07 3.65760E+05  6096.0      254.00     0.69541    
1
 
 SOLVING FOR HEAD 
                                                   Max.-Head-Change                        Max.-Flux-Residual
  Residual-Control   Outer-Iter.   Inner-Iter.     Column Row Layer    Max.-Head-Change    Column Row Layer    Max.-Flux-Residual            L2-New               L2-Old           Solver-Max-Delh
          0                 1           2            32   19     1      -0.2980493479E-01      36   13    1      -0.5268704166E+03      0.3161402588E+04      0.7903380876E+02     -0.2980493479E-01
          0                 2           2            32   19     1       0.2573194589E-02      36   13    1       0.5268631249E+02      0.3144845522E+03      0.3161402588E+04      0.2573194589E-02

    ------------------------------------------------
       NWT REQUIRED            2 OUTER ITERATIONS 
       AND A TOTAL OF          4 INNER ITERATIONS.
    ------------------------------------------------

 OUTPUT CONTROL FOR STRESS PERIOD    1   TIME STEP  255
    SAVE HEAD FOR ALL LAYERS
    SAVE DRAWDOWN FOR ALL LAYERS
    SAVE BUDGET
    PRINT BUDGET
 UBDSV1 SAVING "         STORAGE" ON UNIT   9 AT TIME STEP255, STRESS PERIOD   1
 UBDSV2 SAVING "   CONSTANT HEAD" ON UNIT   9 AT TIME STEP255, STRESS PERIOD   1
 UBDSV1 SAVING "FLOW RIGHT FACE " ON UNIT   9 AT TIME STEP255, STRESS PERIOD   1
 UBDSV1 SAVING "FLOW FRONT FACE " ON UNIT   9 AT TIME STEP255, STRESS PERIOD   1
 UBDSV4 SAVING "   RIVER LEAKAGE" ON UNIT   9 AT TIME STEP255, STRESS PERIOD   1
 UBDSV3 SAVING "        RECHARGE" ON UNIT   9 AT TIME STEP255, STRESS PERIOD   1

 HEAD WILL BE SAVED ON UNIT 5037 AT END OF TIME STEP  255, STRESS PERIOD    1

 DRAWDOWN WILL BE SAVED ON UNIT   38 AT END OF TIME STEP  255, STRESS PERIOD    1
1
  VOLUMETRIC BUDGET FOR ENTIRE MODEL AT END OF TIME STEP  255, STRESS PERIOD   1
  ------------------------------------------------------------------------------

     CUMULATIVE VOLUMES      L**3       RATES FOR THIS TIME STEP      L**3/T
     ------------------                 ------------------------

           IN:                                      IN:
           ---                                      ---
             STORAGE =    10260642.0000               STORAGE =       31110.5938
       CONSTANT HEAD =           0.0000         CONSTANT HEAD =           0.0000
       RIVER LEAKAGE =     1500584.0000         RIVER LEAKAGE =        4151.6118
            RECHARGE =     3138105.7500              RECHARGE =          56.1577

            TOTAL IN =    14899332.0000              TOTAL IN =       35318.3633

          OUT:                                     OUT:
          ----                                     ----
             STORAGE =     5223783.0000               STORAGE =         822.3337
       CONSTANT HEAD =           0.0000         CONSTANT HEAD =           0.0000
       RIVER LEAKAGE =     9659470.0000         RIVER LEAKAGE =       34237.5156
            RECHARGE =           0.0000              RECHARGE =           0.0000

           TOTAL OUT =    14883253.0000             TOTAL OUT =       35059.8477

            IN - OUT =       16079.0000              IN - OUT =         258.5156

 PERCENT DISCREPANCY =           0.11     PERCENT DISCREPANCY =           0.73






         TIME SUMMARY AT END OF TIME STEP  255 IN STRESS PERIOD    1
                    SECONDS     MINUTES      HOURS       DAYS        YEARS
                    -----------------------------------------------------------
   TIME STEP LENGTH  86400.      1440.0      24.000      1.0000     2.73785E-03
 STRESS PERIOD TIME 2.20320E+07 3.67200E+05  6120.0      255.00     0.69815    
         TOTAL TIME 2.20320E+07 3.67200E+05  6120.0      255.00     0.69815    
1
 
 SOLVING FOR HEAD 
                                                   Max.-Head-Change                        Max.-Flux-Residual
  Residual-Control   Outer-Iter.   Inner-Iter.     Column Row Layer    Max.-Head-Change    Column Row Layer    Max.-Flux-Residual            L2-New               L2-Old           Solver-Max-Delh
          0                 1           2            38   15     1       0.2631042079E-01      36   13    1       0.5267910000E+03      0.3105850915E+04      0.1588042795E+02      0.2631042079E-01
          0                 2           2            38   15     1      -0.2091140909E-01      38   15    1      -0.1546848690E+04      0.1577529592E+04      0.3105850915E+04     -0.2091140909E-01

    ------------------------------------------------
       NWT REQUIRED            2 OUTER ITERATIONS 
       AND A TOTAL OF          4 INNER ITERATIONS.
    ------------------------------------------------

 OUTPUT CONTROL FOR STRESS PERIOD    1   TIME STEP  256
    SAVE HEAD FOR ALL LAYERS
    SAVE DRAWDOWN FOR ALL LAYERS
    SAVE BUDGET
    PRINT BUDGET
 UBDSV1 SAVING "         STORAGE" ON UNIT   9 AT TIME STEP256, STRESS PERIOD   1
 UBDSV2 SAVING "   CONSTANT HEAD" ON UNIT   9 AT TIME STEP256, STRESS PERIOD   1
 UBDSV1 SAVING "FLOW RIGHT FACE " ON UNIT   9 AT TIME STEP256, STRESS PERIOD   1
 UBDSV1 SAVING "FLOW FRONT FACE " ON UNIT   9 AT TIME STEP256, STRESS PERIOD   1
 UBDSV4 SAVING "   RIVER LEAKAGE" ON UNIT   9 AT TIME STEP256, STRESS PERIOD   1
 UBDSV3 SAVING "        RECHARGE" ON UNIT   9 AT TIME STEP256, STRESS PERIOD   1

 HEAD WILL BE SAVED ON UNIT 5037 AT END OF TIME STEP  256, STRESS PERIOD    1

 DRAWDOWN WILL BE SAVED ON UNIT   38 AT END OF TIME STEP  256, STRESS PERIOD    1
1
  VOLUMETRIC BUDGET FOR ENTIRE MODEL AT END OF TIME STEP  256, STRESS PERIOD   1
  ------------------------------------------------------------------------------

     CUMULATIVE VOLUMES      L**3       RATES FOR THIS TIME STEP      L**3/T
     ------------------                 ------------------------

           IN:                                      IN:
           ---                                      ---
             STORAGE =    10283670.0000               STORAGE =       23027.6289
       CONSTANT HEAD =           0.0000         CONSTANT HEAD =           0.0000
       RIVER LEAKAGE =     1508247.1250         RIVER LEAKAGE =        7663.1338
            RECHARGE =     3138161.5000              RECHARGE =          55.7037

            TOTAL IN =    14930078.0000              TOTAL IN =       30746.4648

          OUT:                                     OUT:
          ----                                     ----
             STORAGE =     5231640.0000               STORAGE =        7856.7583
       CONSTANT HEAD =           0.0000         CONSTANT HEAD =           0.0000
       RIVER LEAKAGE =     9682473.0000         RIVER LEAKAGE =       23003.2207
            RECHARGE =           0.0000              RECHARGE =           0.0000

           TOTAL OUT =    14914113.0000             TOTAL OUT =       30859.9785

            IN - OUT =       15965.0000              IN - OUT =        -113.5137

 PERCENT DISCREPANCY =           0.11     PERCENT DISCREPANCY =          -0.37






         TIME SUMMARY AT END OF TIME STEP  256 IN STRESS PERIOD    1
                    SECONDS     MINUTES      HOURS       DAYS        YEARS
                    -----------------------------------------------------------
   TIME STEP LENGTH  86400.      1440.0      24.000      1.0000     2.73785E-03
 STRESS PERIOD TIME 2.21184E+07 3.68640E+05  6144.0      256.00     0.70089    
         TOTAL TIME 2.21184E+07 3.68640E+05  6144.0      256.00     0.70089    
1
 
 SOLVING FOR HEAD 
                                                   Max.-Head-Change                        Max.-Flux-Residual
  Residual-Control   Outer-Iter.   Inner-Iter.     Column Row Layer    Max.-Head-Change    Column Row Layer    Max.-Flux-Residual            L2-New               L2-Old           Solver-Max-Delh
          0                 1           2            32   19     1      -0.2950057890E-01      36   13    1      -0.5268701131E+03      0.3157099323E+04      0.7891425160E+02     -0.2950057890E-01
          0                 2           2            32   19     1       0.2546927462E-02      36   13    1       0.5268628093E+02      0.3140486821E+03      0.3157099323E+04      0.2546927462E-02

    ------------------------------------------------
       NWT REQUIRED            2 OUTER ITERATIONS 
       AND A TOTAL OF          4 INNER ITERATIONS.
    ------------------------------------------------

 OUTPUT CONTROL FOR STRESS PERIOD    1   TIME STEP  257
    SAVE HEAD FOR ALL LAYERS
    SAVE DRAWDOWN FOR ALL LAYERS
    SAVE BUDGET
    PRINT BUDGET
 UBDSV1 SAVING "         STORAGE" ON UNIT   9 AT TIME STEP257, STRESS PERIOD   1
 UBDSV2 SAVING "   CONSTANT HEAD" ON UNIT   9 AT TIME STEP257, STRESS PERIOD   1
 UBDSV1 SAVING "FLOW RIGHT FACE " ON UNIT   9 AT TIME STEP257, STRESS PERIOD   1
 UBDSV1 SAVING "FLOW FRONT FACE " ON UNIT   9 AT TIME STEP257, STRESS PERIOD   1
 UBDSV4 SAVING "   RIVER LEAKAGE" ON UNIT   9 AT TIME STEP257, STRESS PERIOD   1
 UBDSV3 SAVING "        RECHARGE" ON UNIT   9 AT TIME STEP257, STRESS PERIOD   1

 HEAD WILL BE SAVED ON UNIT 5037 AT END OF TIME STEP  257, STRESS PERIOD    1

 DRAWDOWN WILL BE SAVED ON UNIT   38 AT END OF TIME STEP  257, STRESS PERIOD    1
1
  VOLUMETRIC BUDGET FOR ENTIRE MODEL AT END OF TIME STEP  257, STRESS PERIOD   1
  ------------------------------------------------------------------------------

     CUMULATIVE VOLUMES      L**3       RATES FOR THIS TIME STEP      L**3/T
     ------------------                 ------------------------

           IN:                                      IN:
           ---                                      ---
             STORAGE =    10314698.0000               STORAGE =       31027.8828
       CONSTANT HEAD =           0.0000         CONSTANT HEAD =           0.0000
       RIVER LEAKAGE =     1512406.1250         RIVER LEAKAGE =        4158.9551
            RECHARGE =     3138216.7500              RECHARGE =          55.2562

            TOTAL IN =    14965321.0000              TOTAL IN =       35242.0938

          OUT:                                     OUT:
          ----                                     ----
             STORAGE =     5232445.5000               STORAGE =         805.5117
       CONSTANT HEAD =           0.0000         CONSTANT HEAD =           0.0000
       RIVER LEAKAGE =     9716649.0000         RIVER LEAKAGE =       34176.1719
            RECHARGE =           0.0000              RECHARGE =           0.0000

           TOTAL OUT =    14949094.0000             TOTAL OUT =       34981.6836

            IN - OUT =       16227.0000              IN - OUT =         260.4102

 PERCENT DISCREPANCY =           0.11     PERCENT DISCREPANCY =           0.74






         TIME SUMMARY AT END OF TIME STEP  257 IN STRESS PERIOD    1
                    SECONDS     MINUTES      HOURS       DAYS        YEARS
                    -----------------------------------------------------------
   TIME STEP LENGTH  86400.      1440.0      24.000      1.0000     2.73785E-03
 STRESS PERIOD TIME 2.22048E+07 3.70080E+05  6168.0      257.00     0.70363    
         TOTAL TIME 2.22048E+07 3.70080E+05  6168.0      257.00     0.70363    
1
 
 SOLVING FOR HEAD 
                                                   Max.-Head-Change                        Max.-Flux-Residual
  Residual-Control   Outer-Iter.   Inner-Iter.     Column Row Layer    Max.-Head-Change    Column Row Layer    Max.-Flux-Residual            L2-New               L2-Old           Solver-Max-Delh
          0                 1           2            38   15     1       0.2629332756E-01      36   13    1       0.5267917878E+03      0.3102426845E+04      0.1570479507E+02      0.2629332756E-01
          0                 2           2            38   15     1      -0.2087668309E-01      38   15    1      -0.1544279878E+04      0.1574941946E+04      0.3102426845E+04     -0.2087668309E-01

    ------------------------------------------------
       NWT REQUIRED            2 OUTER ITERATIONS 
       AND A TOTAL OF          4 INNER ITERATIONS.
    ------------------------------------------------

 OUTPUT CONTROL FOR STRESS PERIOD    1   TIME STEP  258
    SAVE HEAD FOR ALL LAYERS
    SAVE DRAWDOWN FOR ALL LAYERS
    SAVE BUDGET
    PRINT BUDGET
 UBDSV1 SAVING "         STORAGE" ON UNIT   9 AT TIME STEP258, STRESS PERIOD   1
 UBDSV2 SAVING "   CONSTANT HEAD" ON UNIT   9 AT TIME STEP258, STRESS PERIOD   1
 UBDSV1 SAVING "FLOW RIGHT FACE " ON UNIT   9 AT TIME STEP258, STRESS PERIOD   1
 UBDSV1 SAVING "FLOW FRONT FACE " ON UNIT   9 AT TIME STEP258, STRESS PERIOD   1
 UBDSV4 SAVING "   RIVER LEAKAGE" ON UNIT   9 AT TIME STEP258, STRESS PERIOD   1
 UBDSV3 SAVING "        RECHARGE" ON UNIT   9 AT TIME STEP258, STRESS PERIOD   1

 HEAD WILL BE SAVED ON UNIT 5037 AT END OF TIME STEP  258, STRESS PERIOD    1

 DRAWDOWN WILL BE SAVED ON UNIT   38 AT END OF TIME STEP  258, STRESS PERIOD    1
1
  VOLUMETRIC BUDGET FOR ENTIRE MODEL AT END OF TIME STEP  258, STRESS PERIOD   1
  ------------------------------------------------------------------------------

     CUMULATIVE VOLUMES      L**3       RATES FOR THIS TIME STEP      L**3/T
     ------------------                 ------------------------

           IN:                                      IN:
           ---                                      ---
             STORAGE =    10337651.0000               STORAGE =       22952.6602
       CONSTANT HEAD =           0.0000         CONSTANT HEAD =           0.0000
       RIVER LEAKAGE =     1520079.7500         RIVER LEAKAGE =        7673.6392
            RECHARGE =     3138271.5000              RECHARGE =          54.8151

            TOTAL IN =    14996002.0000              TOTAL IN =       30681.1133

          OUT:                                     OUT:
          ----                                     ----
             STORAGE =     5240293.0000               STORAGE =        7847.7441
       CONSTANT HEAD =           0.0000         CONSTANT HEAD =           0.0000
       RIVER LEAKAGE =     9739594.0000         RIVER LEAKAGE =       22944.8516
            RECHARGE =           0.0000              RECHARGE =           0.0000

           TOTAL OUT =    14979887.0000             TOTAL OUT =       30792.5957

            IN - OUT =       16115.0000              IN - OUT =        -111.4824

 PERCENT DISCREPANCY =           0.11     PERCENT DISCREPANCY =          -0.36






         TIME SUMMARY AT END OF TIME STEP  258 IN STRESS PERIOD    1
                    SECONDS     MINUTES      HOURS       DAYS        YEARS
                    -----------------------------------------------------------
   TIME STEP LENGTH  86400.      1440.0      24.000      1.0000     2.73785E-03
 STRESS PERIOD TIME 2.22912E+07 3.71520E+05  6192.0      258.00     0.70637    
         TOTAL TIME 2.22912E+07 3.71520E+05  6192.0      258.00     0.70637    
1
 
 SOLVING FOR HEAD 
                                                   Max.-Head-Change                        Max.-Flux-Residual
  Residual-Control   Outer-Iter.   Inner-Iter.     Column Row Layer    Max.-Head-Change    Column Row Layer    Max.-Flux-Residual            L2-New               L2-Old           Solver-Max-Delh
          0                 1           2            32   19     1      -0.2920378808E-01      36   13    1      -0.5268696864E+03      0.3152880587E+04      0.7875341228E+02     -0.2920378808E-01
          0                 2           2            21    1     1       0.4616622376E-02      36   13    1       0.5268623707E+02      0.3175754376E+03      0.3152880587E+04      0.4616622376E-02

    ------------------------------------------------
       NWT REQUIRED            2 OUTER ITERATIONS 
       AND A TOTAL OF          4 INNER ITERATIONS.
    ------------------------------------------------

 OUTPUT CONTROL FOR STRESS PERIOD    1   TIME STEP  259
    SAVE HEAD FOR ALL LAYERS
    SAVE DRAWDOWN FOR ALL LAYERS
    SAVE BUDGET
    PRINT BUDGET
 UBDSV1 SAVING "         STORAGE" ON UNIT   9 AT TIME STEP259, STRESS PERIOD   1
 UBDSV2 SAVING "   CONSTANT HEAD" ON UNIT   9 AT TIME STEP259, STRESS PERIOD   1
 UBDSV1 SAVING "FLOW RIGHT FACE " ON UNIT   9 AT TIME STEP259, STRESS PERIOD   1
 UBDSV1 SAVING "FLOW FRONT FACE " ON UNIT   9 AT TIME STEP259, STRESS PERIOD   1
 UBDSV4 SAVING "   RIVER LEAKAGE" ON UNIT   9 AT TIME STEP259, STRESS PERIOD   1
 UBDSV3 SAVING "        RECHARGE" ON UNIT   9 AT TIME STEP259, STRESS PERIOD   1

 HEAD WILL BE SAVED ON UNIT 5037 AT END OF TIME STEP  259, STRESS PERIOD    1

 DRAWDOWN WILL BE SAVED ON UNIT   38 AT END OF TIME STEP  259, STRESS PERIOD    1
1
  VOLUMETRIC BUDGET FOR ENTIRE MODEL AT END OF TIME STEP  259, STRESS PERIOD   1
  ------------------------------------------------------------------------------

     CUMULATIVE VOLUMES      L**3       RATES FOR THIS TIME STEP      L**3/T
     ------------------                 ------------------------

           IN:                                      IN:
           ---                                      ---
             STORAGE =    10368597.0000               STORAGE =       30946.4609
       CONSTANT HEAD =           0.0000         CONSTANT HEAD =           0.0000
       RIVER LEAKAGE =     1524246.0000         RIVER LEAKAGE =        4166.2534
            RECHARGE =     3138326.0000              RECHARGE =          54.3802

            TOTAL IN =    15031169.0000              TOTAL IN =       35167.0938

          OUT:                                     OUT:
          ----                                     ----
             STORAGE =     5241082.0000               STORAGE =         789.1718
       CONSTANT HEAD =           0.0000         CONSTANT HEAD =           0.0000
       RIVER LEAKAGE =     9773709.0000         RIVER LEAKAGE =       34115.3438
            RECHARGE =           0.0000              RECHARGE =           0.0000

           TOTAL OUT =    15014791.0000             TOTAL OUT =       34904.5156

            IN - OUT =       16378.0000              IN - OUT =         262.5781

 PERCENT DISCREPANCY =           0.11     PERCENT DISCREPANCY =           0.75






         TIME SUMMARY AT END OF TIME STEP  259 IN STRESS PERIOD    1
                    SECONDS     MINUTES      HOURS       DAYS        YEARS
                    -----------------------------------------------------------
   TIME STEP LENGTH  86400.      1440.0      24.000      1.0000     2.73785E-03
 STRESS PERIOD TIME 2.23776E+07 3.72960E+05  6216.0      259.00     0.70910    
         TOTAL TIME 2.23776E+07 3.72960E+05  6216.0      259.00     0.70910    
1
 
 SOLVING FOR HEAD 
                                                   Max.-Head-Change                        Max.-Flux-Residual
  Residual-Control   Outer-Iter.   Inner-Iter.     Column Row Layer    Max.-Head-Change    Column Row Layer    Max.-Flux-Residual            L2-New               L2-Old           Solver-Max-Delh
          0                 1           2            38   15     1       0.2627633184E-01      36   13    1       0.5267916461E+03      0.3099064730E+04      0.1588139632E+02      0.2627633184E-01
          0                 2           2            38   15     1      -0.2084193027E-01      38   15    1      -0.1541709081E+04      0.1572355264E+04      0.3099064730E+04     -0.2084193027E-01

    ------------------------------------------------
       NWT REQUIRED            2 OUTER ITERATIONS 
       AND A TOTAL OF          4 INNER ITERATIONS.
    ------------------------------------------------

 OUTPUT CONTROL FOR STRESS PERIOD    1   TIME STEP  260
    SAVE HEAD FOR ALL LAYERS
    SAVE DRAWDOWN FOR ALL LAYERS
    SAVE BUDGET
    PRINT BUDGET
 UBDSV1 SAVING "         STORAGE" ON UNIT   9 AT TIME STEP260, STRESS PERIOD   1
 UBDSV2 SAVING "   CONSTANT HEAD" ON UNIT   9 AT TIME STEP260, STRESS PERIOD   1
 UBDSV1 SAVING "FLOW RIGHT FACE " ON UNIT   9 AT TIME STEP260, STRESS PERIOD   1
 UBDSV1 SAVING "FLOW FRONT FACE " ON UNIT   9 AT TIME STEP260, STRESS PERIOD   1
 UBDSV4 SAVING "   RIVER LEAKAGE" ON UNIT   9 AT TIME STEP260, STRESS PERIOD   1
 UBDSV3 SAVING "        RECHARGE" ON UNIT   9 AT TIME STEP260, STRESS PERIOD   1

 HEAD WILL BE SAVED ON UNIT 5037 AT END OF TIME STEP  260, STRESS PERIOD    1

 DRAWDOWN WILL BE SAVED ON UNIT   38 AT END OF TIME STEP  260, STRESS PERIOD    1
1
  VOLUMETRIC BUDGET FOR ENTIRE MODEL AT END OF TIME STEP  260, STRESS PERIOD   1
  ------------------------------------------------------------------------------

     CUMULATIVE VOLUMES      L**3       RATES FOR THIS TIME STEP      L**3/T
     ------------------                 ------------------------

           IN:                                      IN:
           ---                                      ---
             STORAGE =    10391473.0000               STORAGE =       22876.3145
       CONSTANT HEAD =           0.0000         CONSTANT HEAD =           0.0000
       RIVER LEAKAGE =     1531930.0000         RIVER LEAKAGE =        7684.0557
            RECHARGE =     3138380.0000              RECHARGE =          53.9514

            TOTAL IN =    15061783.0000              TOTAL IN =       30614.3223

          OUT:                                     OUT:
          ----                                     ----
             STORAGE =     5248921.0000               STORAGE =        7839.0264
       CONSTANT HEAD =           0.0000         CONSTANT HEAD =           0.0000
       RIVER LEAKAGE =     9796596.0000         RIVER LEAKAGE =       22886.9863
            RECHARGE =           0.0000              RECHARGE =           0.0000

           TOTAL OUT =    15045517.0000             TOTAL OUT =       30726.0117

            IN - OUT =       16266.0000              IN - OUT =        -111.6895

 PERCENT DISCREPANCY =           0.11     PERCENT DISCREPANCY =          -0.36






         TIME SUMMARY AT END OF TIME STEP  260 IN STRESS PERIOD    1
                    SECONDS     MINUTES      HOURS       DAYS        YEARS
                    -----------------------------------------------------------
   TIME STEP LENGTH  86400.      1440.0      24.000      1.0000     2.73785E-03
 STRESS PERIOD TIME 2.24640E+07 3.74400E+05  6240.0      260.00     0.71184    
         TOTAL TIME 2.24640E+07 3.74400E+05  6240.0      260.00     0.71184    
1
 
 SOLVING FOR HEAD 
                                                   Max.-Head-Change                        Max.-Flux-Residual
  Residual-Control   Outer-Iter.   Inner-Iter.     Column Row Layer    Max.-Head-Change    Column Row Layer    Max.-Flux-Residual            L2-New               L2-Old           Solver-Max-Delh
          0                 1           2            32   19     1      -0.2891523130E-01      36   13    1      -0.5268693933E+03      0.3148721779E+04      0.7862406346E+02     -0.2891523130E-01
          0                 2           2            32   19     1       0.2496409078E-02      36   13    1       0.5268620660E+02      0.3132180985E+03      0.3148721779E+04      0.2496409078E-02

    ------------------------------------------------
       NWT REQUIRED            2 OUTER ITERATIONS 
       AND A TOTAL OF          4 INNER ITERATIONS.
    ------------------------------------------------

 OUTPUT CONTROL FOR STRESS PERIOD    1   TIME STEP  261
    SAVE HEAD FOR ALL LAYERS
    SAVE DRAWDOWN FOR ALL LAYERS
    SAVE BUDGET
    PRINT BUDGET
 UBDSV1 SAVING "         STORAGE" ON UNIT   9 AT TIME STEP261, STRESS PERIOD   1
 UBDSV2 SAVING "   CONSTANT HEAD" ON UNIT   9 AT TIME STEP261, STRESS PERIOD   1
 UBDSV1 SAVING "FLOW RIGHT FACE " ON UNIT   9 AT TIME STEP261, STRESS PERIOD   1
 UBDSV1 SAVING "FLOW FRONT FACE " ON UNIT   9 AT TIME STEP261, STRESS PERIOD   1
 UBDSV4 SAVING "   RIVER LEAKAGE" ON UNIT   9 AT TIME STEP261, STRESS PERIOD   1
 UBDSV3 SAVING "        RECHARGE" ON UNIT   9 AT TIME STEP261, STRESS PERIOD   1

 HEAD WILL BE SAVED ON UNIT 5037 AT END OF TIME STEP  261, STRESS PERIOD    1

 DRAWDOWN WILL BE SAVED ON UNIT   38 AT END OF TIME STEP  261, STRESS PERIOD    1
1
  VOLUMETRIC BUDGET FOR ENTIRE MODEL AT END OF TIME STEP  261, STRESS PERIOD   1
  ------------------------------------------------------------------------------

     CUMULATIVE VOLUMES      L**3       RATES FOR THIS TIME STEP      L**3/T
     ------------------                 ------------------------

           IN:                                      IN:
           ---                                      ---
             STORAGE =    10422334.0000               STORAGE =       30861.0996
       CONSTANT HEAD =           0.0000         CONSTANT HEAD =           0.0000
       RIVER LEAKAGE =     1536103.5000         RIVER LEAKAGE =        4173.4966
            RECHARGE =     3138433.5000              RECHARGE =          53.5286

            TOTAL IN =    15096872.0000              TOTAL IN =       35088.1250

          OUT:                                     OUT:
          ----                                     ----
             STORAGE =     5249694.5000               STORAGE =         773.2834
       CONSTANT HEAD =           0.0000         CONSTANT HEAD =           0.0000
       RIVER LEAKAGE =     9830651.0000         RIVER LEAKAGE =       34055.0625
            RECHARGE =           0.0000              RECHARGE =           0.0000

           TOTAL OUT =    15080346.0000             TOTAL OUT =       34828.3477

            IN - OUT =       16526.0000              IN - OUT =         259.7773

 PERCENT DISCREPANCY =           0.11     PERCENT DISCREPANCY =           0.74






         TIME SUMMARY AT END OF TIME STEP  261 IN STRESS PERIOD    1
                    SECONDS     MINUTES      HOURS       DAYS        YEARS
                    -----------------------------------------------------------
   TIME STEP LENGTH  86400.      1440.0      24.000      1.0000     2.73785E-03
 STRESS PERIOD TIME 2.25504E+07 3.75840E+05  6264.0      261.00     0.71458    
         TOTAL TIME 2.25504E+07 3.75840E+05  6264.0      261.00     0.71458    
1
 
 SOLVING FOR HEAD 
                                                   Max.-Head-Change                        Max.-Flux-Residual
  Residual-Control   Outer-Iter.   Inner-Iter.     Column Row Layer    Max.-Head-Change    Column Row Layer    Max.-Flux-Residual            L2-New               L2-Old           Solver-Max-Delh
          0                 1           2            38   15     1       0.2625971829E-01      36   13    1       0.5267924242E+03      0.3095739494E+04      0.1566395270E+02      0.2625971829E-01
          0                 2           2            38   15     1      -0.2080779208E-01      38   15    1      -0.1539183737E+04      0.1569813888E+04      0.3095739494E+04     -0.2080779208E-01

    ------------------------------------------------
       NWT REQUIRED            2 OUTER ITERATIONS 
       AND A TOTAL OF          4 INNER ITERATIONS.
    ------------------------------------------------

 OUTPUT CONTROL FOR STRESS PERIOD    1   TIME STEP  262
    SAVE HEAD FOR ALL LAYERS
    SAVE DRAWDOWN FOR ALL LAYERS
    SAVE BUDGET
    PRINT BUDGET
 UBDSV1 SAVING "         STORAGE" ON UNIT   9 AT TIME STEP262, STRESS PERIOD   1
 UBDSV2 SAVING "   CONSTANT HEAD" ON UNIT   9 AT TIME STEP262, STRESS PERIOD   1
 UBDSV1 SAVING "FLOW RIGHT FACE " ON UNIT   9 AT TIME STEP262, STRESS PERIOD   1
 UBDSV1 SAVING "FLOW FRONT FACE " ON UNIT   9 AT TIME STEP262, STRESS PERIOD   1
 UBDSV4 SAVING "   RIVER LEAKAGE" ON UNIT   9 AT TIME STEP262, STRESS PERIOD   1
 UBDSV3 SAVING "        RECHARGE" ON UNIT   9 AT TIME STEP262, STRESS PERIOD   1

 HEAD WILL BE SAVED ON UNIT 5037 AT END OF TIME STEP  262, STRESS PERIOD    1

 DRAWDOWN WILL BE SAVED ON UNIT   38 AT END OF TIME STEP  262, STRESS PERIOD    1
1
  VOLUMETRIC BUDGET FOR ENTIRE MODEL AT END OF TIME STEP  262, STRESS PERIOD   1
  ------------------------------------------------------------------------------

     CUMULATIVE VOLUMES      L**3       RATES FOR THIS TIME STEP      L**3/T
     ------------------                 ------------------------

           IN:                                      IN:
           ---                                      ---
             STORAGE =    10445135.0000               STORAGE =       22800.7891
       CONSTANT HEAD =           0.0000         CONSTANT HEAD =           0.0000
       RIVER LEAKAGE =     1543797.8750         RIVER LEAKAGE =        7694.3984
            RECHARGE =     3138486.5000              RECHARGE =          53.1117

            TOTAL IN =    15127420.0000              TOTAL IN =       30548.2988

          OUT:                                     OUT:
          ----                                     ----
             STORAGE =     5257525.0000               STORAGE =        7830.5771
       CONSTANT HEAD =           0.0000         CONSTANT HEAD =           0.0000
       RIVER LEAKAGE =     9853481.0000         RIVER LEAKAGE =       22829.6211
            RECHARGE =           0.0000              RECHARGE =           0.0000

           TOTAL OUT =    15111006.0000             TOTAL OUT =       30660.1992

            IN - OUT =       16414.0000              IN - OUT =        -111.9004

 PERCENT DISCREPANCY =           0.11     PERCENT DISCREPANCY =          -0.37






         TIME SUMMARY AT END OF TIME STEP  262 IN STRESS PERIOD    1
                    SECONDS     MINUTES      HOURS       DAYS        YEARS
                    -----------------------------------------------------------
   TIME STEP LENGTH  86400.      1440.0      24.000      1.0000     2.73785E-03
 STRESS PERIOD TIME 2.26368E+07 3.77280E+05  6288.0      262.00     0.71732    
         TOTAL TIME 2.26368E+07 3.77280E+05  6288.0      262.00     0.71732    
1
 
 SOLVING FOR HEAD 
                                                   Max.-Head-Change                        Max.-Flux-Residual
  Residual-Control   Outer-Iter.   Inner-Iter.     Column Row Layer    Max.-Head-Change    Column Row Layer    Max.-Flux-Residual            L2-New               L2-Old           Solver-Max-Delh
          0                 1           2            32   19     1      -0.2863338217E-01      36   13    1      -0.5268689768E+03      0.3144633360E+04      0.7849698164E+02     -0.2863338217E-01
          0                 2           2            32   19     1       0.2472083848E-02      36   13    1       0.5268616381E+02      0.3128130075E+03      0.3144633360E+04      0.2472083848E-02

    ------------------------------------------------
       NWT REQUIRED            2 OUTER ITERATIONS 
       AND A TOTAL OF          4 INNER ITERATIONS.
    ------------------------------------------------

 OUTPUT CONTROL FOR STRESS PERIOD    1   TIME STEP  263
    SAVE HEAD FOR ALL LAYERS
    SAVE DRAWDOWN FOR ALL LAYERS
    SAVE BUDGET
    PRINT BUDGET
 UBDSV1 SAVING "         STORAGE" ON UNIT   9 AT TIME STEP263, STRESS PERIOD   1
 UBDSV2 SAVING "   CONSTANT HEAD" ON UNIT   9 AT TIME STEP263, STRESS PERIOD   1
 UBDSV1 SAVING "FLOW RIGHT FACE " ON UNIT   9 AT TIME STEP263, STRESS PERIOD   1
 UBDSV1 SAVING "FLOW FRONT FACE " ON UNIT   9 AT TIME STEP263, STRESS PERIOD   1
 UBDSV4 SAVING "   RIVER LEAKAGE" ON UNIT   9 AT TIME STEP263, STRESS PERIOD   1
 UBDSV3 SAVING "        RECHARGE" ON UNIT   9 AT TIME STEP263, STRESS PERIOD   1

 HEAD WILL BE SAVED ON UNIT 5037 AT END OF TIME STEP  263, STRESS PERIOD    1

 DRAWDOWN WILL BE SAVED ON UNIT   38 AT END OF TIME STEP  263, STRESS PERIOD    1
1
  VOLUMETRIC BUDGET FOR ENTIRE MODEL AT END OF TIME STEP  263, STRESS PERIOD   1
  ------------------------------------------------------------------------------

     CUMULATIVE VOLUMES      L**3       RATES FOR THIS TIME STEP      L**3/T
     ------------------                 ------------------------

           IN:                                      IN:
           ---                                      ---
             STORAGE =    10475914.0000               STORAGE =       30779.2285
       CONSTANT HEAD =           0.0000         CONSTANT HEAD =           0.0000
       RIVER LEAKAGE =     1547978.6250         RIVER LEAKAGE =        4180.6899
            RECHARGE =     3138539.2500              RECHARGE =          52.7006

            TOTAL IN =    15162432.0000              TOTAL IN =       35012.6172

          OUT:                                     OUT:
          ----                                     ----
             STORAGE =     5258283.0000               STORAGE =         757.8484
       CONSTANT HEAD =           0.0000         CONSTANT HEAD =           0.0000
       RIVER LEAKAGE =     9887476.0000         RIVER LEAKAGE =       33995.3047
            RECHARGE =           0.0000              RECHARGE =           0.0000

           TOTAL OUT =    15145759.0000             TOTAL OUT =       34753.1523

            IN - OUT =       16673.0000              IN - OUT =         259.4648

 PERCENT DISCREPANCY =           0.11     PERCENT DISCREPANCY =           0.74






         TIME SUMMARY AT END OF TIME STEP  263 IN STRESS PERIOD    1
                    SECONDS     MINUTES      HOURS       DAYS        YEARS
                    -----------------------------------------------------------
   TIME STEP LENGTH  86400.      1440.0      24.000      1.0000     2.73785E-03
 STRESS PERIOD TIME 2.27232E+07 3.78720E+05  6312.0      263.00     0.72005    
         TOTAL TIME 2.27232E+07 3.78720E+05  6312.0      263.00     0.72005    
1
 
 SOLVING FOR HEAD 
                                                   Max.-Head-Change                        Max.-Flux-Residual
  Residual-Control   Outer-Iter.   Inner-Iter.     Column Row Layer    Max.-Head-Change    Column Row Layer    Max.-Flux-Residual            L2-New               L2-Old           Solver-Max-Delh
          0                 1           2            38   15     1       0.2624290890E-01      36   13    1       0.5267922725E+03      0.3092475654E+04      0.1564407192E+02      0.2624290890E-01
          0                 2           2            38   15     1      -0.2077346147E-01      38   15    1      -0.1536644172E+04      0.1567259802E+04      0.3092475654E+04     -0.2077346147E-01

    ------------------------------------------------
       NWT REQUIRED            2 OUTER ITERATIONS 
       AND A TOTAL OF          4 INNER ITERATIONS.
    ------------------------------------------------

 OUTPUT CONTROL FOR STRESS PERIOD    1   TIME STEP  264
    SAVE HEAD FOR ALL LAYERS
    SAVE DRAWDOWN FOR ALL LAYERS
    SAVE BUDGET
    PRINT BUDGET
 UBDSV1 SAVING "         STORAGE" ON UNIT   9 AT TIME STEP264, STRESS PERIOD   1
 UBDSV2 SAVING "   CONSTANT HEAD" ON UNIT   9 AT TIME STEP264, STRESS PERIOD   1
 UBDSV1 SAVING "FLOW RIGHT FACE " ON UNIT   9 AT TIME STEP264, STRESS PERIOD   1
 UBDSV1 SAVING "FLOW FRONT FACE " ON UNIT   9 AT TIME STEP264, STRESS PERIOD   1
 UBDSV4 SAVING "   RIVER LEAKAGE" ON UNIT   9 AT TIME STEP264, STRESS PERIOD   1
 UBDSV3 SAVING "        RECHARGE" ON UNIT   9 AT TIME STEP264, STRESS PERIOD   1

 HEAD WILL BE SAVED ON UNIT 5037 AT END OF TIME STEP  264, STRESS PERIOD    1

 DRAWDOWN WILL BE SAVED ON UNIT   38 AT END OF TIME STEP  264, STRESS PERIOD    1
1
  VOLUMETRIC BUDGET FOR ENTIRE MODEL AT END OF TIME STEP  264, STRESS PERIOD   1
  ------------------------------------------------------------------------------

     CUMULATIVE VOLUMES      L**3       RATES FOR THIS TIME STEP      L**3/T
     ------------------                 ------------------------

           IN:                                      IN:
           ---                                      ---
             STORAGE =    10498640.0000               STORAGE =       22726.3340
       CONSTANT HEAD =           0.0000         CONSTANT HEAD =           0.0000
       RIVER LEAKAGE =     1555683.2500         RIVER LEAKAGE =        7704.6523
            RECHARGE =     3138591.5000              RECHARGE =          52.2952

            TOTAL IN =    15192914.0000              TOTAL IN =       30483.2812

          OUT:                                     OUT:
          ----                                     ----
             STORAGE =     5266105.5000               STORAGE =        7822.6387
       CONSTANT HEAD =           0.0000         CONSTANT HEAD =           0.0000
       RIVER LEAKAGE =     9910249.0000         RIVER LEAKAGE =       22772.7461
            RECHARGE =           0.0000              RECHARGE =           0.0000

           TOTAL OUT =    15176354.0000             TOTAL OUT =       30595.3848

            IN - OUT =       16560.0000              IN - OUT =        -112.1035

 PERCENT DISCREPANCY =           0.11     PERCENT DISCREPANCY =          -0.37






         TIME SUMMARY AT END OF TIME STEP  264 IN STRESS PERIOD    1
                    SECONDS     MINUTES      HOURS       DAYS        YEARS
                    -----------------------------------------------------------
   TIME STEP LENGTH  86400.      1440.0      24.000      1.0000     2.73785E-03
 STRESS PERIOD TIME 2.28096E+07 3.80160E+05  6336.0      264.00     0.72279    
         TOTAL TIME 2.28096E+07 3.80160E+05  6336.0      264.00     0.72279    
1
 
 SOLVING FOR HEAD 
                                                   Max.-Head-Change                        Max.-Flux-Residual
  Residual-Control   Outer-Iter.   Inner-Iter.     Column Row Layer    Max.-Head-Change    Column Row Layer    Max.-Flux-Residual            L2-New               L2-Old           Solver-Max-Delh
          0                 1           2            32   19     1      -0.2835941860E-01      36   13    1      -0.5268686936E+03      0.3140624972E+04      0.7836926287E+02     -0.2835941860E-01
          0                 2           2            18   13     1       0.3133499668E-02      36   13    1       0.5268613437E+02      0.3142477024E+03      0.3140624972E+04      0.3133499668E-02

    ------------------------------------------------
       NWT REQUIRED            2 OUTER ITERATIONS 
       AND A TOTAL OF          4 INNER ITERATIONS.
    ------------------------------------------------

 OUTPUT CONTROL FOR STRESS PERIOD    1   TIME STEP  265
    SAVE HEAD FOR ALL LAYERS
    SAVE DRAWDOWN FOR ALL LAYERS
    SAVE BUDGET
    PRINT BUDGET
 UBDSV1 SAVING "         STORAGE" ON UNIT   9 AT TIME STEP265, STRESS PERIOD   1
 UBDSV2 SAVING "   CONSTANT HEAD" ON UNIT   9 AT TIME STEP265, STRESS PERIOD   1
 UBDSV1 SAVING "FLOW RIGHT FACE " ON UNIT   9 AT TIME STEP265, STRESS PERIOD   1
 UBDSV1 SAVING "FLOW FRONT FACE " ON UNIT   9 AT TIME STEP265, STRESS PERIOD   1
 UBDSV4 SAVING "   RIVER LEAKAGE" ON UNIT   9 AT TIME STEP265, STRESS PERIOD   1
 UBDSV3 SAVING "        RECHARGE" ON UNIT   9 AT TIME STEP265, STRESS PERIOD   1

 HEAD WILL BE SAVED ON UNIT 5037 AT END OF TIME STEP  265, STRESS PERIOD    1

 DRAWDOWN WILL BE SAVED ON UNIT   38 AT END OF TIME STEP  265, STRESS PERIOD    1
1
  VOLUMETRIC BUDGET FOR ENTIRE MODEL AT END OF TIME STEP  265, STRESS PERIOD   1
  ------------------------------------------------------------------------------

     CUMULATIVE VOLUMES      L**3       RATES FOR THIS TIME STEP      L**3/T
     ------------------                 ------------------------

           IN:                                      IN:
           ---                                      ---
             STORAGE =    10529341.0000               STORAGE =       30700.6309
       CONSTANT HEAD =           0.0000         CONSTANT HEAD =           0.0000
       RIVER LEAKAGE =     1559871.1250         RIVER LEAKAGE =        4187.8179
            RECHARGE =     3138643.5000              RECHARGE =          51.8954

            TOTAL IN =    15227856.0000              TOTAL IN =       34940.3438

          OUT:                                     OUT:
          ----                                     ----
             STORAGE =     5266849.0000               STORAGE =         743.4454
       CONSTANT HEAD =           0.0000         CONSTANT HEAD =           0.0000
       RIVER LEAKAGE =     9944185.0000         RIVER LEAKAGE =       33936.0547
            RECHARGE =           0.0000              RECHARGE =           0.0000

           TOTAL OUT =    15211034.0000             TOTAL OUT =       34679.5000

            IN - OUT =       16822.0000              IN - OUT =         260.8438

 PERCENT DISCREPANCY =           0.11     PERCENT DISCREPANCY =           0.75






         TIME SUMMARY AT END OF TIME STEP  265 IN STRESS PERIOD    1
                    SECONDS     MINUTES      HOURS       DAYS        YEARS
                    -----------------------------------------------------------
   TIME STEP LENGTH  86400.      1440.0      24.000      1.0000     2.73785E-03
 STRESS PERIOD TIME 2.28960E+07 3.81600E+05  6360.0      265.00     0.72553    
         TOTAL TIME 2.28960E+07 3.81600E+05  6360.0      265.00     0.72553    
1
 
 SOLVING FOR HEAD 
                                                   Max.-Head-Change                        Max.-Flux-Residual
  Residual-Control   Outer-Iter.   Inner-Iter.     Column Row Layer    Max.-Head-Change    Column Row Layer    Max.-Flux-Residual            L2-New               L2-Old           Solver-Max-Delh
          0                 1           2            38   15     1       0.2622619230E-01      36   13    1       0.5267930415E+03      0.3089268362E+04      0.1571616137E+02      0.2622619230E-01
          0                 2           2            38   15     1      -0.2073947720E-01      38   15    1      -0.1534130228E+04      0.1564731970E+04      0.3089268362E+04     -0.2073947720E-01

    ------------------------------------------------
       NWT REQUIRED            2 OUTER ITERATIONS 
       AND A TOTAL OF          4 INNER ITERATIONS.
    ------------------------------------------------

 OUTPUT CONTROL FOR STRESS PERIOD    1   TIME STEP  266
    SAVE HEAD FOR ALL LAYERS
    SAVE DRAWDOWN FOR ALL LAYERS
    SAVE BUDGET
    PRINT BUDGET
 UBDSV1 SAVING "         STORAGE" ON UNIT   9 AT TIME STEP266, STRESS PERIOD   1
 UBDSV2 SAVING "   CONSTANT HEAD" ON UNIT   9 AT TIME STEP266, STRESS PERIOD   1
 UBDSV1 SAVING "FLOW RIGHT FACE " ON UNIT   9 AT TIME STEP266, STRESS PERIOD   1
 UBDSV1 SAVING "FLOW FRONT FACE " ON UNIT   9 AT TIME STEP266, STRESS PERIOD   1
 UBDSV4 SAVING "   RIVER LEAKAGE" ON UNIT   9 AT TIME STEP266, STRESS PERIOD   1
 UBDSV3 SAVING "        RECHARGE" ON UNIT   9 AT TIME STEP266, STRESS PERIOD   1

 HEAD WILL BE SAVED ON UNIT 5037 AT END OF TIME STEP  266, STRESS PERIOD    1

 DRAWDOWN WILL BE SAVED ON UNIT   38 AT END OF TIME STEP  266, STRESS PERIOD    1
1
  VOLUMETRIC BUDGET FOR ENTIRE MODEL AT END OF TIME STEP  266, STRESS PERIOD   1
  ------------------------------------------------------------------------------

     CUMULATIVE VOLUMES      L**3       RATES FOR THIS TIME STEP      L**3/T
     ------------------                 ------------------------

           IN:                                      IN:
           ---                                      ---
             STORAGE =    10551994.0000               STORAGE =       22653.4082
       CONSTANT HEAD =           0.0000         CONSTANT HEAD =           0.0000
       RIVER LEAKAGE =     1567586.0000         RIVER LEAKAGE =        7714.8179
            RECHARGE =     3138695.0000              RECHARGE =          51.5010

            TOTAL IN =    15258275.0000              TOTAL IN =       30419.7266

          OUT:                                     OUT:
          ----                                     ----
             STORAGE =     5274664.5000               STORAGE =        7815.6475
       CONSTANT HEAD =           0.0000         CONSTANT HEAD =           0.0000
       RIVER LEAKAGE =     9966901.0000         RIVER LEAKAGE =       22716.3848
            RECHARGE =           0.0000              RECHARGE =           0.0000

           TOTAL OUT =    15241566.0000             TOTAL OUT =       30532.0312

            IN - OUT =       16709.0000              IN - OUT =        -112.3047

 PERCENT DISCREPANCY =           0.11     PERCENT DISCREPANCY =          -0.37






         TIME SUMMARY AT END OF TIME STEP  266 IN STRESS PERIOD    1
                    SECONDS     MINUTES      HOURS       DAYS        YEARS
                    -----------------------------------------------------------
   TIME STEP LENGTH  86400.      1440.0      24.000      1.0000     2.73785E-03
 STRESS PERIOD TIME 2.29824E+07 3.83040E+05  6384.0      266.00     0.72827    
         TOTAL TIME 2.29824E+07 3.83040E+05  6384.0      266.00     0.72827    
1
 
 SOLVING FOR HEAD 
                                                   Max.-Head-Change                        Max.-Flux-Residual
  Residual-Control   Outer-Iter.   Inner-Iter.     Column Row Layer    Max.-Head-Change    Column Row Layer    Max.-Flux-Residual            L2-New               L2-Old           Solver-Max-Delh
          0                 1           2            32   19     1      -0.2809184625E-01      36   13    1      -0.5268682870E+03      0.3136686073E+04      0.7824285693E+02     -0.2809184625E-01
          0                 2           2            32   19     1       0.2425345656E-02      36   13    1       0.5268609264E+02      0.3120263092E+03      0.3136686073E+04      0.2425345656E-02

    ------------------------------------------------
       NWT REQUIRED            2 OUTER ITERATIONS 
       AND A TOTAL OF          4 INNER ITERATIONS.
    ------------------------------------------------

 OUTPUT CONTROL FOR STRESS PERIOD    1   TIME STEP  267
    SAVE HEAD FOR ALL LAYERS
    SAVE DRAWDOWN FOR ALL LAYERS
    SAVE BUDGET
    PRINT BUDGET
 UBDSV1 SAVING "         STORAGE" ON UNIT   9 AT TIME STEP267, STRESS PERIOD   1
 UBDSV2 SAVING "   CONSTANT HEAD" ON UNIT   9 AT TIME STEP267, STRESS PERIOD   1
 UBDSV1 SAVING "FLOW RIGHT FACE " ON UNIT   9 AT TIME STEP267, STRESS PERIOD   1
 UBDSV1 SAVING "FLOW FRONT FACE " ON UNIT   9 AT TIME STEP267, STRESS PERIOD   1
 UBDSV4 SAVING "   RIVER LEAKAGE" ON UNIT   9 AT TIME STEP267, STRESS PERIOD   1
 UBDSV3 SAVING "        RECHARGE" ON UNIT   9 AT TIME STEP267, STRESS PERIOD   1

 HEAD WILL BE SAVED ON UNIT 5037 AT END OF TIME STEP  267, STRESS PERIOD    1

 DRAWDOWN WILL BE SAVED ON UNIT   38 AT END OF TIME STEP  267, STRESS PERIOD    1
1
  VOLUMETRIC BUDGET FOR ENTIRE MODEL AT END OF TIME STEP  267, STRESS PERIOD   1
  ------------------------------------------------------------------------------

     CUMULATIVE VOLUMES      L**3       RATES FOR THIS TIME STEP      L**3/T
     ------------------                 ------------------------

           IN:                                      IN:
           ---                                      ---
             STORAGE =    10582614.0000               STORAGE =       30620.2148
       CONSTANT HEAD =           0.0000         CONSTANT HEAD =           0.0000
       RIVER LEAKAGE =     1571780.8750         RIVER LEAKAGE =        4194.8989
            RECHARGE =     3138746.0000              RECHARGE =          51.1119

            TOTAL IN =    15293141.0000              TOTAL IN =       34866.2266

          OUT:                                     OUT:
          ----                                     ----
             STORAGE =     5275394.5000               STORAGE =         730.0217
       CONSTANT HEAD =           0.0000         CONSTANT HEAD =           0.0000
       RIVER LEAKAGE =    10000778.0000         RIVER LEAKAGE =       33877.3516
            RECHARGE =           0.0000              RECHARGE =           0.0000

           TOTAL OUT =    15276172.0000             TOTAL OUT =       34607.3750

            IN - OUT =       16969.0000              IN - OUT =         258.8516

 PERCENT DISCREPANCY =           0.11     PERCENT DISCREPANCY =           0.75






         TIME SUMMARY AT END OF TIME STEP  267 IN STRESS PERIOD    1
                    SECONDS     MINUTES      HOURS       DAYS        YEARS
                    -----------------------------------------------------------
   TIME STEP LENGTH  86400.      1440.0      24.000      1.0000     2.73785E-03
 STRESS PERIOD TIME 2.30688E+07 3.84480E+05  6408.0      267.00     0.73101    
         TOTAL TIME 2.30688E+07 3.84480E+05  6408.0      267.00     0.73101    
1
 
 SOLVING FOR HEAD 
                                                   Max.-Head-Change                        Max.-Flux-Residual
  Residual-Control   Outer-Iter.   Inner-Iter.     Column Row Layer    Max.-Head-Change    Column Row Layer    Max.-Flux-Residual            L2-New               L2-Old           Solver-Max-Delh
          0                 1           2            38   15     1       0.2620985092E-01      36   13    1       0.5267928804E+03      0.3086111142E+04      0.1560554043E+02      0.2620985092E-01
          0                 2           2            38   15     1      -0.2070572051E-01      38   15    1      -0.1531633115E+04      0.1562221643E+04      0.3086111142E+04     -0.2070572051E-01

    ------------------------------------------------
       NWT REQUIRED            2 OUTER ITERATIONS 
       AND A TOTAL OF          4 INNER ITERATIONS.
    ------------------------------------------------

 OUTPUT CONTROL FOR STRESS PERIOD    1   TIME STEP  268
    SAVE HEAD FOR ALL LAYERS
    SAVE DRAWDOWN FOR ALL LAYERS
    SAVE BUDGET
    PRINT BUDGET
 UBDSV1 SAVING "         STORAGE" ON UNIT   9 AT TIME STEP268, STRESS PERIOD   1
 UBDSV2 SAVING "   CONSTANT HEAD" ON UNIT   9 AT TIME STEP268, STRESS PERIOD   1
 UBDSV1 SAVING "FLOW RIGHT FACE " ON UNIT   9 AT TIME STEP268, STRESS PERIOD   1
 UBDSV1 SAVING "FLOW FRONT FACE " ON UNIT   9 AT TIME STEP268, STRESS PERIOD   1
 UBDSV4 SAVING "   RIVER LEAKAGE" ON UNIT   9 AT TIME STEP268, STRESS PERIOD   1
 UBDSV3 SAVING "        RECHARGE" ON UNIT   9 AT TIME STEP268, STRESS PERIOD   1

 HEAD WILL BE SAVED ON UNIT 5037 AT END OF TIME STEP  268, STRESS PERIOD    1

 DRAWDOWN WILL BE SAVED ON UNIT   38 AT END OF TIME STEP  268, STRESS PERIOD    1
1
  VOLUMETRIC BUDGET FOR ENTIRE MODEL AT END OF TIME STEP  268, STRESS PERIOD   1
  ------------------------------------------------------------------------------

     CUMULATIVE VOLUMES      L**3       RATES FOR THIS TIME STEP      L**3/T
     ------------------                 ------------------------

           IN:                                      IN:
           ---                                      ---
             STORAGE =    10605196.0000               STORAGE =       22581.5176
       CONSTANT HEAD =           0.0000         CONSTANT HEAD =           0.0000
       RIVER LEAKAGE =     1579506.0000         RIVER LEAKAGE =        7725.1167
            RECHARGE =     3138796.7500              RECHARGE =          50.7281

            TOTAL IN =    15323499.0000              TOTAL IN =       30357.3633

          OUT:                                     OUT:
          ----                                     ----
             STORAGE =     5283203.5000               STORAGE =        7809.1406
       CONSTANT HEAD =           0.0000         CONSTANT HEAD =           0.0000
       RIVER LEAKAGE =    10023439.0000         RIVER LEAKAGE =       22660.7266
            RECHARGE =           0.0000              RECHARGE =           0.0000

           TOTAL OUT =    15306642.0000             TOTAL OUT =       30469.8672

            IN - OUT =       16857.0000              IN - OUT =        -112.5039

 PERCENT DISCREPANCY =           0.11     PERCENT DISCREPANCY =          -0.37






         TIME SUMMARY AT END OF TIME STEP  268 IN STRESS PERIOD    1
                    SECONDS     MINUTES      HOURS       DAYS        YEARS
                    -----------------------------------------------------------
   TIME STEP LENGTH  86400.      1440.0      24.000      1.0000     2.73785E-03
 STRESS PERIOD TIME 2.31552E+07 3.85920E+05  6432.0      268.00     0.73374    
         TOTAL TIME 2.31552E+07 3.85920E+05  6432.0      268.00     0.73374    
1
 
 SOLVING FOR HEAD 
                                                   Max.-Head-Change                        Max.-Flux-Residual
  Residual-Control   Outer-Iter.   Inner-Iter.     Column Row Layer    Max.-Head-Change    Column Row Layer    Max.-Flux-Residual            L2-New               L2-Old           Solver-Max-Delh
          0                 1           2            32   19     1      -0.2783144742E-01      36   13    1      -0.5268680135E+03      0.3132812634E+04      0.7811732647E+02     -0.2783144742E-01
          0                 2           2            32   19     1       0.2402871263E-02      36   13    1       0.5268606423E+02      0.3116431802E+03      0.3132812634E+04      0.2402871263E-02

    ------------------------------------------------
       NWT REQUIRED            2 OUTER ITERATIONS 
       AND A TOTAL OF          4 INNER ITERATIONS.
    ------------------------------------------------

 OUTPUT CONTROL FOR STRESS PERIOD    1   TIME STEP  269
    SAVE HEAD FOR ALL LAYERS
    SAVE DRAWDOWN FOR ALL LAYERS
    SAVE BUDGET
    PRINT BUDGET
 UBDSV1 SAVING "         STORAGE" ON UNIT   9 AT TIME STEP269, STRESS PERIOD   1
 UBDSV2 SAVING "   CONSTANT HEAD" ON UNIT   9 AT TIME STEP269, STRESS PERIOD   1
 UBDSV1 SAVING "FLOW RIGHT FACE " ON UNIT   9 AT TIME STEP269, STRESS PERIOD   1
 UBDSV1 SAVING "FLOW FRONT FACE " ON UNIT   9 AT TIME STEP269, STRESS PERIOD   1
 UBDSV4 SAVING "   RIVER LEAKAGE" ON UNIT   9 AT TIME STEP269, STRESS PERIOD   1
 UBDSV3 SAVING "        RECHARGE" ON UNIT   9 AT TIME STEP269, STRESS PERIOD   1

 HEAD WILL BE SAVED ON UNIT 5037 AT END OF TIME STEP  269, STRESS PERIOD    1

 DRAWDOWN WILL BE SAVED ON UNIT   38 AT END OF TIME STEP  269, STRESS PERIOD    1
1
  VOLUMETRIC BUDGET FOR ENTIRE MODEL AT END OF TIME STEP  269, STRESS PERIOD   1
  ------------------------------------------------------------------------------

     CUMULATIVE VOLUMES      L**3       RATES FOR THIS TIME STEP      L**3/T
     ------------------                 ------------------------

           IN:                                      IN:
           ---                                      ---
             STORAGE =    10635738.0000               STORAGE =       30542.3555
       CONSTANT HEAD =           0.0000         CONSTANT HEAD =           0.0000
       RIVER LEAKAGE =     1583707.8750         RIVER LEAKAGE =        4201.9302
            RECHARGE =     3138847.0000              RECHARGE =          50.3494

            TOTAL IN =    15358293.0000              TOTAL IN =       34794.6328

          OUT:                                     OUT:
          ----                                     ----
             STORAGE =     5283920.5000               STORAGE =         716.9133
       CONSTANT HEAD =           0.0000         CONSTANT HEAD =           0.0000
       RIVER LEAKAGE =    10057258.0000         RIVER LEAKAGE =       33819.1758
            RECHARGE =           0.0000              RECHARGE =           0.0000

           TOTAL OUT =    15341178.0000             TOTAL OUT =       34536.0898

            IN - OUT =       17115.0000              IN - OUT =         258.5430

 PERCENT DISCREPANCY =           0.11     PERCENT DISCREPANCY =           0.75






         TIME SUMMARY AT END OF TIME STEP  269 IN STRESS PERIOD    1
                    SECONDS     MINUTES      HOURS       DAYS        YEARS
                    -----------------------------------------------------------
   TIME STEP LENGTH  86400.      1440.0      24.000      1.0000     2.73785E-03
 STRESS PERIOD TIME 2.32416E+07 3.87360E+05  6456.0      269.00     0.73648    
         TOTAL TIME 2.32416E+07 3.87360E+05  6456.0      269.00     0.73648    
1
 
 SOLVING FOR HEAD 
                                                   Max.-Head-Change                        Max.-Flux-Residual
  Residual-Control   Outer-Iter.   Inner-Iter.     Column Row Layer    Max.-Head-Change    Column Row Layer    Max.-Flux-Residual            L2-New               L2-Old           Solver-Max-Delh
          0                 1           2            38   15     1       0.2619330876E-01      36   13    1       0.5267936404E+03      0.3083012510E+04      0.1558681125E+02      0.2619330876E-01
          0                 2           2            38   15     1      -0.2067213622E-01      38   15    1      -0.1529148759E+04      0.1559725005E+04      0.3083012510E+04     -0.2067213622E-01

    ------------------------------------------------
       NWT REQUIRED            2 OUTER ITERATIONS 
       AND A TOTAL OF          4 INNER ITERATIONS.
    ------------------------------------------------

 OUTPUT CONTROL FOR STRESS PERIOD    1   TIME STEP  270
    SAVE HEAD FOR ALL LAYERS
    SAVE DRAWDOWN FOR ALL LAYERS
    SAVE BUDGET
    PRINT BUDGET
 UBDSV1 SAVING "         STORAGE" ON UNIT   9 AT TIME STEP270, STRESS PERIOD   1
 UBDSV2 SAVING "   CONSTANT HEAD" ON UNIT   9 AT TIME STEP270, STRESS PERIOD   1
 UBDSV1 SAVING "FLOW RIGHT FACE " ON UNIT   9 AT TIME STEP270, STRESS PERIOD   1
 UBDSV1 SAVING "FLOW FRONT FACE " ON UNIT   9 AT TIME STEP270, STRESS PERIOD   1
 UBDSV4 SAVING "   RIVER LEAKAGE" ON UNIT   9 AT TIME STEP270, STRESS PERIOD   1
 UBDSV3 SAVING "        RECHARGE" ON UNIT   9 AT TIME STEP270, STRESS PERIOD   1

 HEAD WILL BE SAVED ON UNIT 5037 AT END OF TIME STEP  270, STRESS PERIOD    1

 DRAWDOWN WILL BE SAVED ON UNIT   38 AT END OF TIME STEP  270, STRESS PERIOD    1
1
  VOLUMETRIC BUDGET FOR ENTIRE MODEL AT END OF TIME STEP  270, STRESS PERIOD   1
  ------------------------------------------------------------------------------

     CUMULATIVE VOLUMES      L**3       RATES FOR THIS TIME STEP      L**3/T
     ------------------                 ------------------------

           IN:                                      IN:
           ---                                      ---
             STORAGE =    10658248.0000               STORAGE =       22510.2559
       CONSTANT HEAD =           0.0000         CONSTANT HEAD =           0.0000
       RIVER LEAKAGE =     1591443.3750         RIVER LEAKAGE =        7735.5264
            RECHARGE =     3138897.0000              RECHARGE =          49.9759

            TOTAL IN =    15388588.0000              TOTAL IN =       30295.7578

          OUT:                                     OUT:
          ----                                     ----
             STORAGE =     5291723.0000               STORAGE =        7802.7017
       CONSTANT HEAD =           0.0000         CONSTANT HEAD =           0.0000
       RIVER LEAKAGE =    10079864.0000         RIVER LEAKAGE =       22605.7617
            RECHARGE =           0.0000              RECHARGE =           0.0000

           TOTAL OUT =    15371587.0000             TOTAL OUT =       30408.4629

            IN - OUT =       17001.0000              IN - OUT =        -112.7051

 PERCENT DISCREPANCY =           0.11     PERCENT DISCREPANCY =          -0.37






         TIME SUMMARY AT END OF TIME STEP  270 IN STRESS PERIOD    1
                    SECONDS     MINUTES      HOURS       DAYS        YEARS
                    -----------------------------------------------------------
   TIME STEP LENGTH  86400.      1440.0      24.000      1.0000     2.73785E-03
 STRESS PERIOD TIME 2.33280E+07 3.88800E+05  6480.0      270.00     0.73922    
         TOTAL TIME 2.33280E+07 3.88800E+05  6480.0      270.00     0.73922    
1
 
 SOLVING FOR HEAD 
                                                   Max.-Head-Change                        Max.-Flux-Residual
  Residual-Control   Outer-Iter.   Inner-Iter.     Column Row Layer    Max.-Head-Change    Column Row Layer    Max.-Flux-Residual            L2-New               L2-Old           Solver-Max-Delh
          0                 1           2            32   19     1      -0.2757720911E-01      36   13    1      -0.5268676163E+03      0.3129014942E+04      0.7799248047E+02     -0.2757720911E-01
          0                 2           2            32   19     1       0.2380928431E-02      36   13    1       0.5268602348E+02      0.3112677479E+03      0.3129014942E+04      0.2380928431E-02

    ------------------------------------------------
       NWT REQUIRED            2 OUTER ITERATIONS 
       AND A TOTAL OF          4 INNER ITERATIONS.
    ------------------------------------------------

 OUTPUT CONTROL FOR STRESS PERIOD    1   TIME STEP  271
    SAVE HEAD FOR ALL LAYERS
    SAVE DRAWDOWN FOR ALL LAYERS
    SAVE BUDGET
    PRINT BUDGET
 UBDSV1 SAVING "         STORAGE" ON UNIT   9 AT TIME STEP271, STRESS PERIOD   1
 UBDSV2 SAVING "   CONSTANT HEAD" ON UNIT   9 AT TIME STEP271, STRESS PERIOD   1
 UBDSV1 SAVING "FLOW RIGHT FACE " ON UNIT   9 AT TIME STEP271, STRESS PERIOD   1
 UBDSV1 SAVING "FLOW FRONT FACE " ON UNIT   9 AT TIME STEP271, STRESS PERIOD   1
 UBDSV4 SAVING "   RIVER LEAKAGE" ON UNIT   9 AT TIME STEP271, STRESS PERIOD   1
 UBDSV3 SAVING "        RECHARGE" ON UNIT   9 AT TIME STEP271, STRESS PERIOD   1

 HEAD WILL BE SAVED ON UNIT 5037 AT END OF TIME STEP  271, STRESS PERIOD    1

 DRAWDOWN WILL BE SAVED ON UNIT   38 AT END OF TIME STEP  271, STRESS PERIOD    1
1
  VOLUMETRIC BUDGET FOR ENTIRE MODEL AT END OF TIME STEP  271, STRESS PERIOD   1
  ------------------------------------------------------------------------------

     CUMULATIVE VOLUMES      L**3       RATES FOR THIS TIME STEP      L**3/T
     ------------------                 ------------------------

           IN:                                      IN:
           ---                                      ---
             STORAGE =    10688713.0000               STORAGE =       30465.2480
       CONSTANT HEAD =           0.0000         CONSTANT HEAD =           0.0000
       RIVER LEAKAGE =     1595652.2500         RIVER LEAKAGE =        4208.9058
            RECHARGE =     3138946.5000              RECHARGE =          49.6072

            TOTAL IN =    15423312.0000              TOTAL IN =       34723.7578

          OUT:                                     OUT:
          ----                                     ----
             STORAGE =     5292427.0000               STORAGE =         704.0222
       CONSTANT HEAD =           0.0000         CONSTANT HEAD =           0.0000
       RIVER LEAKAGE =    10113625.0000         RIVER LEAKAGE =       33761.4961
            RECHARGE =           0.0000              RECHARGE =           0.0000

           TOTAL OUT =    15406052.0000             TOTAL OUT =       34465.5195

            IN - OUT =       17260.0000              IN - OUT =         258.2383

 PERCENT DISCREPANCY =           0.11     PERCENT DISCREPANCY =           0.75






         TIME SUMMARY AT END OF TIME STEP  271 IN STRESS PERIOD    1
                    SECONDS     MINUTES      HOURS       DAYS        YEARS
                    -----------------------------------------------------------
   TIME STEP LENGTH  86400.      1440.0      24.000      1.0000     2.73785E-03
 STRESS PERIOD TIME 2.34144E+07 3.90240E+05  6504.0      271.00     0.74196    
         TOTAL TIME 2.34144E+07 3.90240E+05  6504.0      271.00     0.74196    
1
 
 SOLVING FOR HEAD 
                                                   Max.-Head-Change                        Max.-Flux-Residual
  Residual-Control   Outer-Iter.   Inner-Iter.     Column Row Layer    Max.-Head-Change    Column Row Layer    Max.-Flux-Residual            L2-New               L2-Old           Solver-Max-Delh
          0                 1           2            38   15     1       0.2617714231E-01      36   13    1       0.5267934706E+03      0.3079967578E+04      0.1556848998E+02      0.2617714231E-01
          0                 2           2            38   15     1      -0.2063874885E-01      38   15    1      -0.1526678966E+04      0.1557243722E+04      0.3079967578E+04     -0.2063874885E-01

    ------------------------------------------------
       NWT REQUIRED            2 OUTER ITERATIONS 
       AND A TOTAL OF          4 INNER ITERATIONS.
    ------------------------------------------------

 OUTPUT CONTROL FOR STRESS PERIOD    1   TIME STEP  272
    SAVE HEAD FOR ALL LAYERS
    SAVE DRAWDOWN FOR ALL LAYERS
    SAVE BUDGET
    PRINT BUDGET
 UBDSV1 SAVING "         STORAGE" ON UNIT   9 AT TIME STEP272, STRESS PERIOD   1
 UBDSV2 SAVING "   CONSTANT HEAD" ON UNIT   9 AT TIME STEP272, STRESS PERIOD   1
 UBDSV1 SAVING "FLOW RIGHT FACE " ON UNIT   9 AT TIME STEP272, STRESS PERIOD   1
 UBDSV1 SAVING "FLOW FRONT FACE " ON UNIT   9 AT TIME STEP272, STRESS PERIOD   1
 UBDSV4 SAVING "   RIVER LEAKAGE" ON UNIT   9 AT TIME STEP272, STRESS PERIOD   1
 UBDSV3 SAVING "        RECHARGE" ON UNIT   9 AT TIME STEP272, STRESS PERIOD   1

 HEAD WILL BE SAVED ON UNIT 5037 AT END OF TIME STEP  272, STRESS PERIOD    1

 DRAWDOWN WILL BE SAVED ON UNIT   38 AT END OF TIME STEP  272, STRESS PERIOD    1
1
  VOLUMETRIC BUDGET FOR ENTIRE MODEL AT END OF TIME STEP  272, STRESS PERIOD   1
  ------------------------------------------------------------------------------

     CUMULATIVE VOLUMES      L**3       RATES FOR THIS TIME STEP      L**3/T
     ------------------                 ------------------------

           IN:                                      IN:
           ---                                      ---
             STORAGE =    10711153.0000               STORAGE =       22439.5879
       CONSTANT HEAD =           0.0000         CONSTANT HEAD =           0.0000
       RIVER LEAKAGE =     1603398.1250         RIVER LEAKAGE =        7745.8423
            RECHARGE =     3138995.7500              RECHARGE =          49.2435

            TOTAL IN =    15453547.0000              TOTAL IN =       30234.6738

          OUT:                                     OUT:
          ----                                     ----
             STORAGE =     5300223.5000               STORAGE =        7796.3125
       CONSTANT HEAD =           0.0000         CONSTANT HEAD =           0.0000
       RIVER LEAKAGE =    10136176.0000         RIVER LEAKAGE =       22551.2617
            RECHARGE =           0.0000              RECHARGE =           0.0000

           TOTAL OUT =    15436400.0000             TOTAL OUT =       30347.5742

            IN - OUT =       17147.0000              IN - OUT =        -112.9004

 PERCENT DISCREPANCY =           0.11     PERCENT DISCREPANCY =          -0.37






         TIME SUMMARY AT END OF TIME STEP  272 IN STRESS PERIOD    1
                    SECONDS     MINUTES      HOURS       DAYS        YEARS
                    -----------------------------------------------------------
   TIME STEP LENGTH  86400.      1440.0      24.000      1.0000     2.73785E-03
 STRESS PERIOD TIME 2.35008E+07 3.91680E+05  6528.0      272.00     0.74470    
         TOTAL TIME 2.35008E+07 3.91680E+05  6528.0      272.00     0.74470    
1
 
 SOLVING FOR HEAD 
                                                   Max.-Head-Change                        Max.-Flux-Residual
  Residual-Control   Outer-Iter.   Inner-Iter.     Column Row Layer    Max.-Head-Change    Column Row Layer    Max.-Flux-Residual            L2-New               L2-Old           Solver-Max-Delh
          0                 1           2            28    2     1      -0.2127495859E-01      29    3    1      -0.2808623734E+03      0.1663091348E+04      0.7786840238E+02     -0.2127495859E-01
          0                 2           2            28    2     1       0.1837024024E-02      29    3    1       0.2808387696E+02      0.1662905449E+03      0.1663091348E+04      0.1837024024E-02

    ------------------------------------------------
       NWT REQUIRED            2 OUTER ITERATIONS 
       AND A TOTAL OF          4 INNER ITERATIONS.
    ------------------------------------------------

 OUTPUT CONTROL FOR STRESS PERIOD    1   TIME STEP  273
    SAVE HEAD FOR ALL LAYERS
    SAVE DRAWDOWN FOR ALL LAYERS
    SAVE BUDGET
    PRINT BUDGET
 UBDSV1 SAVING "         STORAGE" ON UNIT   9 AT TIME STEP273, STRESS PERIOD   1
 UBDSV2 SAVING "   CONSTANT HEAD" ON UNIT   9 AT TIME STEP273, STRESS PERIOD   1
 UBDSV1 SAVING "FLOW RIGHT FACE " ON UNIT   9 AT TIME STEP273, STRESS PERIOD   1
 UBDSV1 SAVING "FLOW FRONT FACE " ON UNIT   9 AT TIME STEP273, STRESS PERIOD   1
 UBDSV4 SAVING "   RIVER LEAKAGE" ON UNIT   9 AT TIME STEP273, STRESS PERIOD   1
 UBDSV3 SAVING "        RECHARGE" ON UNIT   9 AT TIME STEP273, STRESS PERIOD   1

 HEAD WILL BE SAVED ON UNIT 5037 AT END OF TIME STEP  273, STRESS PERIOD    1

 DRAWDOWN WILL BE SAVED ON UNIT   38 AT END OF TIME STEP  273, STRESS PERIOD    1
1
  VOLUMETRIC BUDGET FOR ENTIRE MODEL AT END OF TIME STEP  273, STRESS PERIOD   1
  ------------------------------------------------------------------------------

     CUMULATIVE VOLUMES      L**3       RATES FOR THIS TIME STEP      L**3/T
     ------------------                 ------------------------

           IN:                                      IN:
           ---                                      ---
             STORAGE =    10733554.0000               STORAGE =       22401.4434
       CONSTANT HEAD =           0.0000         CONSTANT HEAD =           0.0000
       RIVER LEAKAGE =     1610229.5000         RIVER LEAKAGE =        6831.3130
            RECHARGE =     3139044.7500              RECHARGE =          48.8845

            TOTAL IN =    15482829.0000              TOTAL IN =       29281.6406

          OUT:                                     OUT:
          ----                                     ----
             STORAGE =     5302843.0000               STORAGE =        2619.4116
       CONSTANT HEAD =           0.0000         CONSTANT HEAD =           0.0000
       RIVER LEAKAGE =    10162764.0000         RIVER LEAKAGE =       26588.4609
            RECHARGE =           0.0000              RECHARGE =           0.0000

           TOTAL OUT =    15465607.0000             TOTAL OUT =       29207.8730

            IN - OUT =       17222.0000              IN - OUT =          73.7676

 PERCENT DISCREPANCY =           0.11     PERCENT DISCREPANCY =           0.25






         TIME SUMMARY AT END OF TIME STEP  273 IN STRESS PERIOD    1
                    SECONDS     MINUTES      HOURS       DAYS        YEARS
                    -----------------------------------------------------------
   TIME STEP LENGTH  86400.      1440.0      24.000      1.0000     2.73785E-03
 STRESS PERIOD TIME 2.35872E+07 3.93120E+05  6552.0      273.00     0.74743    
         TOTAL TIME 2.35872E+07 3.93120E+05  6552.0      273.00     0.74743    
1
 
 SOLVING FOR HEAD 
                                                   Max.-Head-Change                        Max.-Flux-Residual
  Residual-Control   Outer-Iter.   Inner-Iter.     Column Row Layer    Max.-Head-Change    Column Row Layer    Max.-Flux-Residual            L2-New               L2-Old           Solver-Max-Delh
          0                 1           2            28    2     1      -0.2121161128E-01      29    3    1      -0.2805230553E+03      0.1550574121E+04      0.8314384403E+01     -0.2121161128E-01
          0                 2           2            30    3     1       0.5707829789E-02      30    3    1       0.6372453376E+02      0.1676224804E+03      0.1550574121E+04      0.5707829789E-02

    ------------------------------------------------
       NWT REQUIRED            2 OUTER ITERATIONS 
       AND A TOTAL OF          4 INNER ITERATIONS.
    ------------------------------------------------

 OUTPUT CONTROL FOR STRESS PERIOD    1   TIME STEP  274
    SAVE HEAD FOR ALL LAYERS
    SAVE DRAWDOWN FOR ALL LAYERS
    SAVE BUDGET
    PRINT BUDGET
 UBDSV1 SAVING "         STORAGE" ON UNIT   9 AT TIME STEP274, STRESS PERIOD   1
 UBDSV2 SAVING "   CONSTANT HEAD" ON UNIT   9 AT TIME STEP274, STRESS PERIOD   1
 UBDSV1 SAVING "FLOW RIGHT FACE " ON UNIT   9 AT TIME STEP274, STRESS PERIOD   1
 UBDSV1 SAVING "FLOW FRONT FACE " ON UNIT   9 AT TIME STEP274, STRESS PERIOD   1
 UBDSV4 SAVING "   RIVER LEAKAGE" ON UNIT   9 AT TIME STEP274, STRESS PERIOD   1
 UBDSV3 SAVING "        RECHARGE" ON UNIT   9 AT TIME STEP274, STRESS PERIOD   1

 HEAD WILL BE SAVED ON UNIT 5037 AT END OF TIME STEP  274, STRESS PERIOD    1

 DRAWDOWN WILL BE SAVED ON UNIT   38 AT END OF TIME STEP  274, STRESS PERIOD    1
1
  VOLUMETRIC BUDGET FOR ENTIRE MODEL AT END OF TIME STEP  274, STRESS PERIOD   1
  ------------------------------------------------------------------------------

     CUMULATIVE VOLUMES      L**3       RATES FOR THIS TIME STEP      L**3/T
     ------------------                 ------------------------

           IN:                                      IN:
           ---                                      ---
             STORAGE =    10755918.0000               STORAGE =       22364.3691
       CONSTANT HEAD =           0.0000         CONSTANT HEAD =           0.0000
       RIVER LEAKAGE =     1616879.0000         RIVER LEAKAGE =        6649.4531
            RECHARGE =     3139093.2500              RECHARGE =          48.5302

            TOTAL IN =    15511890.0000              TOTAL IN =       29062.3516

          OUT:                                     OUT:
          ----                                     ----
             STORAGE =     5304230.5000               STORAGE =        1387.4406
       CONSTANT HEAD =           0.0000         CONSTANT HEAD =           0.0000
       RIVER LEAKAGE =    10190337.0000         RIVER LEAKAGE =       27573.2246
            RECHARGE =           0.0000              RECHARGE =           0.0000

           TOTAL OUT =    15494568.0000             TOTAL OUT =       28960.6660

            IN - OUT =       17322.0000              IN - OUT =         101.6855

 PERCENT DISCREPANCY =           0.11     PERCENT DISCREPANCY =           0.35






         TIME SUMMARY AT END OF TIME STEP  274 IN STRESS PERIOD    1
                    SECONDS     MINUTES      HOURS       DAYS        YEARS
                    -----------------------------------------------------------
   TIME STEP LENGTH  86400.      1440.0      24.000      1.0000     2.73785E-03
 STRESS PERIOD TIME 2.36736E+07 3.94560E+05  6576.0      274.00     0.75017    
         TOTAL TIME 2.36736E+07 3.94560E+05  6576.0      274.00     0.75017    
1
 
 SOLVING FOR HEAD 
                                                   Max.-Head-Change                        Max.-Flux-Residual
  Residual-Control   Outer-Iter.   Inner-Iter.     Column Row Layer    Max.-Head-Change    Column Row Layer    Max.-Flux-Residual            L2-New               L2-Old           Solver-Max-Delh
          0                 1           2            28    2     1      -0.2114859805E-01      29    3    1      -0.2799219356E+03      0.1540322138E+04      0.8380838689E+01     -0.2114859805E-01
          0                 2           2            28    2     1       0.1826115423E-02      29    3    1       0.2798963192E+02      0.1540127332E+03      0.1540322138E+04      0.1826115423E-02

    ------------------------------------------------
       NWT REQUIRED            2 OUTER ITERATIONS 
       AND A TOTAL OF          4 INNER ITERATIONS.
    ------------------------------------------------

 OUTPUT CONTROL FOR STRESS PERIOD    1   TIME STEP  275
    SAVE HEAD FOR ALL LAYERS
    SAVE DRAWDOWN FOR ALL LAYERS
    SAVE BUDGET
    PRINT BUDGET
 UBDSV1 SAVING "         STORAGE" ON UNIT   9 AT TIME STEP275, STRESS PERIOD   1
 UBDSV2 SAVING "   CONSTANT HEAD" ON UNIT   9 AT TIME STEP275, STRESS PERIOD   1
 UBDSV1 SAVING "FLOW RIGHT FACE " ON UNIT   9 AT TIME STEP275, STRESS PERIOD   1
 UBDSV1 SAVING "FLOW FRONT FACE " ON UNIT   9 AT TIME STEP275, STRESS PERIOD   1
 UBDSV4 SAVING "   RIVER LEAKAGE" ON UNIT   9 AT TIME STEP275, STRESS PERIOD   1
 UBDSV3 SAVING "        RECHARGE" ON UNIT   9 AT TIME STEP275, STRESS PERIOD   1

 HEAD WILL BE SAVED ON UNIT 5037 AT END OF TIME STEP  275, STRESS PERIOD    1

 DRAWDOWN WILL BE SAVED ON UNIT   38 AT END OF TIME STEP  275, STRESS PERIOD    1
1
  VOLUMETRIC BUDGET FOR ENTIRE MODEL AT END OF TIME STEP  275, STRESS PERIOD   1
  ------------------------------------------------------------------------------

     CUMULATIVE VOLUMES      L**3       RATES FOR THIS TIME STEP      L**3/T
     ------------------                 ------------------------

           IN:                                      IN:
           ---                                      ---
             STORAGE =    10778242.0000               STORAGE =       22324.3652
       CONSTANT HEAD =           0.0000         CONSTANT HEAD =           0.0000
       RIVER LEAKAGE =     1623488.6250         RIVER LEAKAGE =        6609.6230
            RECHARGE =     3139141.5000              RECHARGE =          48.1805

            TOTAL IN =    15540872.0000              TOTAL IN =       28982.1680

          OUT:                                     OUT:
          ----                                     ----
             STORAGE =     5305309.0000               STORAGE =        1078.6843
       CONSTANT HEAD =           0.0000         CONSTANT HEAD =           0.0000
       RIVER LEAKAGE =    10218136.0000         RIVER LEAKAGE =       27799.1211
            RECHARGE =           0.0000              RECHARGE =           0.0000

           TOTAL OUT =    15523445.0000             TOTAL OUT =       28877.8047

            IN - OUT =       17427.0000              IN - OUT =         104.3633

 PERCENT DISCREPANCY =           0.11     PERCENT DISCREPANCY =           0.36






         TIME SUMMARY AT END OF TIME STEP  275 IN STRESS PERIOD    1
                    SECONDS     MINUTES      HOURS       DAYS        YEARS
                    -----------------------------------------------------------
   TIME STEP LENGTH  86400.      1440.0      24.000      1.0000     2.73785E-03
 STRESS PERIOD TIME 2.37600E+07 3.96000E+05  6600.0      275.00     0.75291    
         TOTAL TIME 2.37600E+07 3.96000E+05  6600.0      275.00     0.75291    
1
 
 SOLVING FOR HEAD 
                                                   Max.-Head-Change                        Max.-Flux-Residual
  Residual-Control   Outer-Iter.   Inner-Iter.     Column Row Layer    Max.-Head-Change    Column Row Layer    Max.-Flux-Residual            L2-New               L2-Old           Solver-Max-Delh
          0                 1           2            28    2     1      -0.2108591211E-01      29    3    1      -0.2789954311E+03      0.1536380863E+04      0.7700487483E+01     -0.2108591211E-01
          0                 2           2            28    2     1       0.1820703790E-02      29    3    1       0.2789700399E+02      0.1545149192E+03      0.1536380863E+04      0.1820703790E-02

    ------------------------------------------------
       NWT REQUIRED            2 OUTER ITERATIONS 
       AND A TOTAL OF          4 INNER ITERATIONS.
    ------------------------------------------------

 OUTPUT CONTROL FOR STRESS PERIOD    1   TIME STEP  276
    SAVE HEAD FOR ALL LAYERS
    SAVE DRAWDOWN FOR ALL LAYERS
    SAVE BUDGET
    PRINT BUDGET
 UBDSV1 SAVING "         STORAGE" ON UNIT   9 AT TIME STEP276, STRESS PERIOD   1
 UBDSV2 SAVING "   CONSTANT HEAD" ON UNIT   9 AT TIME STEP276, STRESS PERIOD   1
 UBDSV1 SAVING "FLOW RIGHT FACE " ON UNIT   9 AT TIME STEP276, STRESS PERIOD   1
 UBDSV1 SAVING "FLOW FRONT FACE " ON UNIT   9 AT TIME STEP276, STRESS PERIOD   1
 UBDSV4 SAVING "   RIVER LEAKAGE" ON UNIT   9 AT TIME STEP276, STRESS PERIOD   1
 UBDSV3 SAVING "        RECHARGE" ON UNIT   9 AT TIME STEP276, STRESS PERIOD   1

 HEAD WILL BE SAVED ON UNIT 5037 AT END OF TIME STEP  276, STRESS PERIOD    1

 DRAWDOWN WILL BE SAVED ON UNIT   38 AT END OF TIME STEP  276, STRESS PERIOD    1
1
  VOLUMETRIC BUDGET FOR ENTIRE MODEL AT END OF TIME STEP  276, STRESS PERIOD   1
  ------------------------------------------------------------------------------

     CUMULATIVE VOLUMES      L**3       RATES FOR THIS TIME STEP      L**3/T
     ------------------                 ------------------------

           IN:                                      IN:
           ---                                      ---
             STORAGE =    10800531.0000               STORAGE =       22289.3555
       CONSTANT HEAD =           0.0000         CONSTANT HEAD =           0.0000
       RIVER LEAKAGE =     1630091.5000         RIVER LEAKAGE =        6602.9082
            RECHARGE =     3139189.2500              RECHARGE =          47.8353

            TOTAL IN =    15569811.0000              TOTAL IN =       28940.0996

          OUT:                                     OUT:
          ----                                     ----
             STORAGE =     5306304.0000               STORAGE =         994.8196
       CONSTANT HEAD =           0.0000         CONSTANT HEAD =           0.0000
       RIVER LEAKAGE =    10245975.0000         RIVER LEAKAGE =       27838.7617
            RECHARGE =           0.0000              RECHARGE =           0.0000

           TOTAL OUT =    15552279.0000             TOTAL OUT =       28833.5820

            IN - OUT =       17532.0000              IN - OUT =         106.5176

 PERCENT DISCREPANCY =           0.11     PERCENT DISCREPANCY =           0.37






         TIME SUMMARY AT END OF TIME STEP  276 IN STRESS PERIOD    1
                    SECONDS     MINUTES      HOURS       DAYS        YEARS
                    -----------------------------------------------------------
   TIME STEP LENGTH  86400.      1440.0      24.000      1.0000     2.73785E-03
 STRESS PERIOD TIME 2.38464E+07 3.97440E+05  6624.0      276.00     0.75565    
         TOTAL TIME 2.38464E+07 3.97440E+05  6624.0      276.00     0.75565    
1
 
 SOLVING FOR HEAD 
                                                   Max.-Head-Change                        Max.-Flux-Residual
  Residual-Control   Outer-Iter.   Inner-Iter.     Column Row Layer    Max.-Head-Change    Column Row Layer    Max.-Flux-Residual            L2-New               L2-Old           Solver-Max-Delh
          0                 1           2            28    2     1      -0.2102465623E-01      29    3    1      -0.2780803081E+03      0.1532871472E+04      0.7725595665E+01     -0.2102465623E-01
          0                 2           2            28    2     1       0.1815415601E-02      29    3    1       0.2780551366E+02      0.1532678677E+03      0.1532871472E+04      0.1815415601E-02

    ------------------------------------------------
       NWT REQUIRED            2 OUTER ITERATIONS 
       AND A TOTAL OF          4 INNER ITERATIONS.
    ------------------------------------------------

 OUTPUT CONTROL FOR STRESS PERIOD    1   TIME STEP  277
    SAVE HEAD FOR ALL LAYERS
    SAVE DRAWDOWN FOR ALL LAYERS
    SAVE BUDGET
    PRINT BUDGET
 UBDSV1 SAVING "         STORAGE" ON UNIT   9 AT TIME STEP277, STRESS PERIOD   1
 UBDSV2 SAVING "   CONSTANT HEAD" ON UNIT   9 AT TIME STEP277, STRESS PERIOD   1
 UBDSV1 SAVING "FLOW RIGHT FACE " ON UNIT   9 AT TIME STEP277, STRESS PERIOD   1
 UBDSV1 SAVING "FLOW FRONT FACE " ON UNIT   9 AT TIME STEP277, STRESS PERIOD   1
 UBDSV4 SAVING "   RIVER LEAKAGE" ON UNIT   9 AT TIME STEP277, STRESS PERIOD   1
 UBDSV3 SAVING "        RECHARGE" ON UNIT   9 AT TIME STEP277, STRESS PERIOD   1

 HEAD WILL BE SAVED ON UNIT 5037 AT END OF TIME STEP  277, STRESS PERIOD    1

 DRAWDOWN WILL BE SAVED ON UNIT   38 AT END OF TIME STEP  277, STRESS PERIOD    1
1
  VOLUMETRIC BUDGET FOR ENTIRE MODEL AT END OF TIME STEP  277, STRESS PERIOD   1
  ------------------------------------------------------------------------------

     CUMULATIVE VOLUMES      L**3       RATES FOR THIS TIME STEP      L**3/T
     ------------------                 ------------------------

           IN:                                      IN:
           ---                                      ---
             STORAGE =    10822786.0000               STORAGE =       22255.4434
       CONSTANT HEAD =           0.0000         CONSTANT HEAD =           0.0000
       RIVER LEAKAGE =     1636695.8750         RIVER LEAKAGE =        6604.3267
            RECHARGE =     3139236.7500              RECHARGE =          47.4945

            TOTAL IN =    15598719.0000              TOTAL IN =       28907.2637

          OUT:                                     OUT:
          ----                                     ----
             STORAGE =     5307273.0000               STORAGE =         969.0708
       CONSTANT HEAD =           0.0000         CONSTANT HEAD =           0.0000
       RIVER LEAKAGE =    10273807.0000         RIVER LEAKAGE =       27832.2656
            RECHARGE =           0.0000              RECHARGE =           0.0000

           TOTAL OUT =    15581080.0000             TOTAL OUT =       28801.3359

            IN - OUT =       17639.0000              IN - OUT =         105.9277

 PERCENT DISCREPANCY =           0.11     PERCENT DISCREPANCY =           0.37






         TIME SUMMARY AT END OF TIME STEP  277 IN STRESS PERIOD    1
                    SECONDS     MINUTES      HOURS       DAYS        YEARS
                    -----------------------------------------------------------
   TIME STEP LENGTH  86400.      1440.0      24.000      1.0000     2.73785E-03
 STRESS PERIOD TIME 2.39328E+07 3.98880E+05  6648.0      277.00     0.75838    
         TOTAL TIME 2.39328E+07 3.98880E+05  6648.0      277.00     0.75838    
1
 
 SOLVING FOR HEAD 
                                                   Max.-Head-Change                        Max.-Flux-Residual
  Residual-Control   Outer-Iter.   Inner-Iter.     Column Row Layer    Max.-Head-Change    Column Row Layer    Max.-Flux-Residual            L2-New               L2-Old           Solver-Max-Delh
          0                 1           2            28    2     1      -0.2096251947E-01      29    3    1      -0.2771887519E+03      0.1529414713E+04      0.7663245725E+01     -0.2096251947E-01
          0                 2           2            28    2     1       0.1810051364E-02      29    3    1       0.2771637924E+02      0.1532105729E+03      0.1529414713E+04      0.1810051364E-02

    ------------------------------------------------
       NWT REQUIRED            2 OUTER ITERATIONS 
       AND A TOTAL OF          4 INNER ITERATIONS.
    ------------------------------------------------

 OUTPUT CONTROL FOR STRESS PERIOD    1   TIME STEP  278
    SAVE HEAD FOR ALL LAYERS
    SAVE DRAWDOWN FOR ALL LAYERS
    SAVE BUDGET
    PRINT BUDGET
 UBDSV1 SAVING "         STORAGE" ON UNIT   9 AT TIME STEP278, STRESS PERIOD   1
 UBDSV2 SAVING "   CONSTANT HEAD" ON UNIT   9 AT TIME STEP278, STRESS PERIOD   1
 UBDSV1 SAVING "FLOW RIGHT FACE " ON UNIT   9 AT TIME STEP278, STRESS PERIOD   1
 UBDSV1 SAVING "FLOW FRONT FACE " ON UNIT   9 AT TIME STEP278, STRESS PERIOD   1
 UBDSV4 SAVING "   RIVER LEAKAGE" ON UNIT   9 AT TIME STEP278, STRESS PERIOD   1
 UBDSV3 SAVING "        RECHARGE" ON UNIT   9 AT TIME STEP278, STRESS PERIOD   1

 HEAD WILL BE SAVED ON UNIT 5037 AT END OF TIME STEP  278, STRESS PERIOD    1

 DRAWDOWN WILL BE SAVED ON UNIT   38 AT END OF TIME STEP  278, STRESS PERIOD    1
1
  VOLUMETRIC BUDGET FOR ENTIRE MODEL AT END OF TIME STEP  278, STRESS PERIOD   1
  ------------------------------------------------------------------------------

     CUMULATIVE VOLUMES      L**3       RATES FOR THIS TIME STEP      L**3/T
     ------------------                 ------------------------

           IN:                                      IN:
           ---                                      ---
             STORAGE =    10845009.0000               STORAGE =       22223.0312
       CONSTANT HEAD =           0.0000         CONSTANT HEAD =           0.0000
       RIVER LEAKAGE =     1643303.6250         RIVER LEAKAGE =        6607.7437
            RECHARGE =     3139284.0000              RECHARGE =          47.1581

            TOTAL IN =    15627597.0000              TOTAL IN =       28877.9336

          OUT:                                     OUT:
          ----                                     ----
             STORAGE =     5308230.5000               STORAGE =         957.3682
       CONSTANT HEAD =           0.0000         CONSTANT HEAD =           0.0000
       RIVER LEAKAGE =    10301621.0000         RIVER LEAKAGE =       27814.1914
            RECHARGE =           0.0000              RECHARGE =           0.0000

           TOTAL OUT =    15609852.0000             TOTAL OUT =       28771.5605

            IN - OUT =       17745.0000              IN - OUT =         106.3730

 PERCENT DISCREPANCY =           0.11     PERCENT DISCREPANCY =           0.37






         TIME SUMMARY AT END OF TIME STEP  278 IN STRESS PERIOD    1
                    SECONDS     MINUTES      HOURS       DAYS        YEARS
                    -----------------------------------------------------------
   TIME STEP LENGTH  86400.      1440.0      24.000      1.0000     2.73785E-03
 STRESS PERIOD TIME 2.40192E+07 4.00320E+05  6672.0      278.00     0.76112    
         TOTAL TIME 2.40192E+07 4.00320E+05  6672.0      278.00     0.76112    
1
 
 SOLVING FOR HEAD 
                                                   Max.-Head-Change                        Max.-Flux-Residual
  Residual-Control   Outer-Iter.   Inner-Iter.     Column Row Layer    Max.-Head-Change    Column Row Layer    Max.-Flux-Residual            L2-New               L2-Old           Solver-Max-Delh
          0                 1           2            28    2     1      -0.2090178785E-01      29    3    1      -0.2763195045E+03      0.1525992765E+04      0.7661511614E+01     -0.2090178785E-01
          0                 2           2            28    2     1       0.1804808422E-02      29    3    1       0.2762947502E+02      0.1525857151E+03      0.1525992765E+04      0.1804808422E-02

    ------------------------------------------------
       NWT REQUIRED            2 OUTER ITERATIONS 
       AND A TOTAL OF          4 INNER ITERATIONS.
    ------------------------------------------------

 OUTPUT CONTROL FOR STRESS PERIOD    1   TIME STEP  279
    SAVE HEAD FOR ALL LAYERS
    SAVE DRAWDOWN FOR ALL LAYERS
    SAVE BUDGET
    PRINT BUDGET
 UBDSV1 SAVING "         STORAGE" ON UNIT   9 AT TIME STEP279, STRESS PERIOD   1
 UBDSV2 SAVING "   CONSTANT HEAD" ON UNIT   9 AT TIME STEP279, STRESS PERIOD   1
 UBDSV1 SAVING "FLOW RIGHT FACE " ON UNIT   9 AT TIME STEP279, STRESS PERIOD   1
 UBDSV1 SAVING "FLOW FRONT FACE " ON UNIT   9 AT TIME STEP279, STRESS PERIOD   1
 UBDSV4 SAVING "   RIVER LEAKAGE" ON UNIT   9 AT TIME STEP279, STRESS PERIOD   1
 UBDSV3 SAVING "        RECHARGE" ON UNIT   9 AT TIME STEP279, STRESS PERIOD   1

 HEAD WILL BE SAVED ON UNIT 5037 AT END OF TIME STEP  279, STRESS PERIOD    1

 DRAWDOWN WILL BE SAVED ON UNIT   38 AT END OF TIME STEP  279, STRESS PERIOD    1
1
  VOLUMETRIC BUDGET FOR ENTIRE MODEL AT END OF TIME STEP  279, STRESS PERIOD   1
  ------------------------------------------------------------------------------

     CUMULATIVE VOLUMES      L**3       RATES FOR THIS TIME STEP      L**3/T
     ------------------                 ------------------------

           IN:                                      IN:
           ---                                      ---
             STORAGE =    10867196.0000               STORAGE =       22186.8242
       CONSTANT HEAD =           0.0000         CONSTANT HEAD =           0.0000
       RIVER LEAKAGE =     1649915.2500         RIVER LEAKAGE =        6611.6436
            RECHARGE =     3139330.7500              RECHARGE =          46.8260

            TOTAL IN =    15656442.0000              TOTAL IN =       28845.2949

          OUT:                                     OUT:
          ----                                     ----
             STORAGE =     5309178.0000               STORAGE =         947.3584
       CONSTANT HEAD =           0.0000         CONSTANT HEAD =           0.0000
       RIVER LEAKAGE =    10329414.0000         RIVER LEAKAGE =       27793.3223
            RECHARGE =           0.0000              RECHARGE =           0.0000

           TOTAL OUT =    15638592.0000             TOTAL OUT =       28740.6797

            IN - OUT =       17850.0000              IN - OUT =         104.6152

 PERCENT DISCREPANCY =           0.11     PERCENT DISCREPANCY =           0.36






         TIME SUMMARY AT END OF TIME STEP  279 IN STRESS PERIOD    1
                    SECONDS     MINUTES      HOURS       DAYS        YEARS
                    -----------------------------------------------------------
   TIME STEP LENGTH  86400.      1440.0      24.000      1.0000     2.73785E-03
 STRESS PERIOD TIME 2.41056E+07 4.01760E+05  6696.0      279.00     0.76386    
         TOTAL TIME 2.41056E+07 4.01760E+05  6696.0      279.00     0.76386    
1
 
 SOLVING FOR HEAD 
                                                   Max.-Head-Change                        Max.-Flux-Residual
  Residual-Control   Outer-Iter.   Inner-Iter.     Column Row Layer    Max.-Head-Change    Column Row Layer    Max.-Flux-Residual            L2-New               L2-Old           Solver-Max-Delh
          0                 1           2            28    2     1      -0.2084015390E-01      29    3    1      -0.2754584288E+03      0.1522589706E+04      0.7720244458E+01     -0.2084015390E-01
          0                 2           2            28    2     1       0.1799487581E-02      29    3    1       0.2754338762E+02      0.1522490552E+03      0.1522589706E+04      0.1799487581E-02

    ------------------------------------------------
       NWT REQUIRED            2 OUTER ITERATIONS 
       AND A TOTAL OF          4 INNER ITERATIONS.
    ------------------------------------------------

 OUTPUT CONTROL FOR STRESS PERIOD    1   TIME STEP  280
    SAVE HEAD FOR ALL LAYERS
    SAVE DRAWDOWN FOR ALL LAYERS
    SAVE BUDGET
    PRINT BUDGET
 UBDSV1 SAVING "         STORAGE" ON UNIT   9 AT TIME STEP280, STRESS PERIOD   1
 UBDSV2 SAVING "   CONSTANT HEAD" ON UNIT   9 AT TIME STEP280, STRESS PERIOD   1
 UBDSV1 SAVING "FLOW RIGHT FACE " ON UNIT   9 AT TIME STEP280, STRESS PERIOD   1
 UBDSV1 SAVING "FLOW FRONT FACE " ON UNIT   9 AT TIME STEP280, STRESS PERIOD   1
 UBDSV4 SAVING "   RIVER LEAKAGE" ON UNIT   9 AT TIME STEP280, STRESS PERIOD   1
 UBDSV3 SAVING "        RECHARGE" ON UNIT   9 AT TIME STEP280, STRESS PERIOD   1

 HEAD WILL BE SAVED ON UNIT 5037 AT END OF TIME STEP  280, STRESS PERIOD    1

 DRAWDOWN WILL BE SAVED ON UNIT   38 AT END OF TIME STEP  280, STRESS PERIOD    1
1
  VOLUMETRIC BUDGET FOR ENTIRE MODEL AT END OF TIME STEP  280, STRESS PERIOD   1
  ------------------------------------------------------------------------------

     CUMULATIVE VOLUMES      L**3       RATES FOR THIS TIME STEP      L**3/T
     ------------------                 ------------------------

           IN:                                      IN:
           ---                                      ---
             STORAGE =    10889349.0000               STORAGE =       22153.1816
       CONSTANT HEAD =           0.0000         CONSTANT HEAD =           0.0000
       RIVER LEAKAGE =     1656530.8750         RIVER LEAKAGE =        6615.6519
            RECHARGE =     3139377.2500              RECHARGE =          46.4981

            TOTAL IN =    15685257.0000              TOTAL IN =       28815.3320

          OUT:                                     OUT:
          ----                                     ----
             STORAGE =     5310115.5000               STORAGE =         937.7166
       CONSTANT HEAD =           0.0000         CONSTANT HEAD =           0.0000
       RIVER LEAKAGE =    10357186.0000         RIVER LEAKAGE =       27771.9395
            RECHARGE =           0.0000              RECHARGE =           0.0000

           TOTAL OUT =    15667302.0000             TOTAL OUT =       28709.6562

            IN - OUT =       17955.0000              IN - OUT =         105.6758

 PERCENT DISCREPANCY =           0.11     PERCENT DISCREPANCY =           0.37






         TIME SUMMARY AT END OF TIME STEP  280 IN STRESS PERIOD    1
                    SECONDS     MINUTES      HOURS       DAYS        YEARS
                    -----------------------------------------------------------
   TIME STEP LENGTH  86400.      1440.0      24.000      1.0000     2.73785E-03
 STRESS PERIOD TIME 2.41920E+07 4.03200E+05  6720.0      280.00     0.76660    
         TOTAL TIME 2.41920E+07 4.03200E+05  6720.0      280.00     0.76660    
1
 
 SOLVING FOR HEAD 
                                                   Max.-Head-Change                        Max.-Flux-Residual
  Residual-Control   Outer-Iter.   Inner-Iter.     Column Row Layer    Max.-Head-Change    Column Row Layer    Max.-Flux-Residual            L2-New               L2-Old           Solver-Max-Delh
          0                 1           2            28    2     1      -0.2077989788E-01      29    3    1      -0.2746049052E+03      0.1519203405E+04      0.7614764790E+01     -0.2077989788E-01
          0                 2           2            28    2     1       0.1794285683E-02      29    3    1       0.2745805504E+02      0.1519017410E+03      0.1519203405E+04      0.1794285683E-02

    ------------------------------------------------
       NWT REQUIRED            2 OUTER ITERATIONS 
       AND A TOTAL OF          4 INNER ITERATIONS.
    ------------------------------------------------

 OUTPUT CONTROL FOR STRESS PERIOD    1   TIME STEP  281
    SAVE HEAD FOR ALL LAYERS
    SAVE DRAWDOWN FOR ALL LAYERS
    SAVE BUDGET
    PRINT BUDGET
 UBDSV1 SAVING "         STORAGE" ON UNIT   9 AT TIME STEP281, STRESS PERIOD   1
 UBDSV2 SAVING "   CONSTANT HEAD" ON UNIT   9 AT TIME STEP281, STRESS PERIOD   1
 UBDSV1 SAVING "FLOW RIGHT FACE " ON UNIT   9 AT TIME STEP281, STRESS PERIOD   1
 UBDSV1 SAVING "FLOW FRONT FACE " ON UNIT   9 AT TIME STEP281, STRESS PERIOD   1
 UBDSV4 SAVING "   RIVER LEAKAGE" ON UNIT   9 AT TIME STEP281, STRESS PERIOD   1
 UBDSV3 SAVING "        RECHARGE" ON UNIT   9 AT TIME STEP281, STRESS PERIOD   1

 HEAD WILL BE SAVED ON UNIT 5037 AT END OF TIME STEP  281, STRESS PERIOD    1

 DRAWDOWN WILL BE SAVED ON UNIT   38 AT END OF TIME STEP  281, STRESS PERIOD    1
1
  VOLUMETRIC BUDGET FOR ENTIRE MODEL AT END OF TIME STEP  281, STRESS PERIOD   1
  ------------------------------------------------------------------------------

     CUMULATIVE VOLUMES      L**3       RATES FOR THIS TIME STEP      L**3/T
     ------------------                 ------------------------

           IN:                                      IN:
           ---                                      ---
             STORAGE =    10911467.0000               STORAGE =       22118.1152
       CONSTANT HEAD =           0.0000         CONSTANT HEAD =           0.0000
       RIVER LEAKAGE =     1663150.6250         RIVER LEAKAGE =        6619.7397
            RECHARGE =     3139423.5000              RECHARGE =          46.1743

            TOTAL IN =    15714042.0000              TOTAL IN =       28784.0293

          OUT:                                     OUT:
          ----                                     ----
             STORAGE =     5311044.0000               STORAGE =         928.3508
       CONSTANT HEAD =           0.0000         CONSTANT HEAD =           0.0000
       RIVER LEAKAGE =    10384936.0000         RIVER LEAKAGE =       27750.4023
            RECHARGE =           0.0000              RECHARGE =           0.0000

           TOTAL OUT =    15695980.0000             TOTAL OUT =       28678.7539

            IN - OUT =       18062.0000              IN - OUT =         105.2754

 PERCENT DISCREPANCY =           0.12     PERCENT DISCREPANCY =           0.37






         TIME SUMMARY AT END OF TIME STEP  281 IN STRESS PERIOD    1
                    SECONDS     MINUTES      HOURS       DAYS        YEARS
                    -----------------------------------------------------------
   TIME STEP LENGTH  86400.      1440.0      24.000      1.0000     2.73785E-03
 STRESS PERIOD TIME 2.42784E+07 4.04640E+05  6744.0      281.00     0.76934    
         TOTAL TIME 2.42784E+07 4.04640E+05  6744.0      281.00     0.76934    
1
 
 SOLVING FOR HEAD 
                                                   Max.-Head-Change                        Max.-Flux-Residual
  Residual-Control   Outer-Iter.   Inner-Iter.     Column Row Layer    Max.-Head-Change    Column Row Layer    Max.-Flux-Residual            L2-New               L2-Old           Solver-Max-Delh
          0                 1           2            28    2     1      -0.2071984574E-01      29    3    1      -0.2737714711E+03      0.1515860923E+04      0.7599386170E+01     -0.2071984574E-01
          0                 2           2            13    2     1       0.1977104005E-02      29    3    1       0.2737473090E+02      0.1530394843E+03      0.1515860923E+04      0.1977104005E-02

    ------------------------------------------------
       NWT REQUIRED            2 OUTER ITERATIONS 
       AND A TOTAL OF          4 INNER ITERATIONS.
    ------------------------------------------------

 OUTPUT CONTROL FOR STRESS PERIOD    1   TIME STEP  282
    SAVE HEAD FOR ALL LAYERS
    SAVE DRAWDOWN FOR ALL LAYERS
    SAVE BUDGET
    PRINT BUDGET
 UBDSV1 SAVING "         STORAGE" ON UNIT   9 AT TIME STEP282, STRESS PERIOD   1
 UBDSV2 SAVING "   CONSTANT HEAD" ON UNIT   9 AT TIME STEP282, STRESS PERIOD   1
 UBDSV1 SAVING "FLOW RIGHT FACE " ON UNIT   9 AT TIME STEP282, STRESS PERIOD   1
 UBDSV1 SAVING "FLOW FRONT FACE " ON UNIT   9 AT TIME STEP282, STRESS PERIOD   1
 UBDSV4 SAVING "   RIVER LEAKAGE" ON UNIT   9 AT TIME STEP282, STRESS PERIOD   1
 UBDSV3 SAVING "        RECHARGE" ON UNIT   9 AT TIME STEP282, STRESS PERIOD   1

 HEAD WILL BE SAVED ON UNIT 5037 AT END OF TIME STEP  282, STRESS PERIOD    1

 DRAWDOWN WILL BE SAVED ON UNIT   38 AT END OF TIME STEP  282, STRESS PERIOD    1
1
  VOLUMETRIC BUDGET FOR ENTIRE MODEL AT END OF TIME STEP  282, STRESS PERIOD   1
  ------------------------------------------------------------------------------

     CUMULATIVE VOLUMES      L**3       RATES FOR THIS TIME STEP      L**3/T
     ------------------                 ------------------------

           IN:                                      IN:
           ---                                      ---
             STORAGE =    10933551.0000               STORAGE =       22084.4766
       CONSTANT HEAD =           0.0000         CONSTANT HEAD =           0.0000
       RIVER LEAKAGE =     1669774.5000         RIVER LEAKAGE =        6623.8545
            RECHARGE =     3139469.2500              RECHARGE =          45.8545

            TOTAL IN =    15742795.0000              TOTAL IN =       28754.1875

          OUT:                                     OUT:
          ----                                     ----
             STORAGE =     5311963.0000               STORAGE =         919.1866
       CONSTANT HEAD =           0.0000         CONSTANT HEAD =           0.0000
       RIVER LEAKAGE =    10412665.0000         RIVER LEAKAGE =       27728.8867
            RECHARGE =           0.0000              RECHARGE =           0.0000

           TOTAL OUT =    15724628.0000             TOTAL OUT =       28648.0742

            IN - OUT =       18167.0000              IN - OUT =         106.1133

 PERCENT DISCREPANCY =           0.12     PERCENT DISCREPANCY =           0.37






         TIME SUMMARY AT END OF TIME STEP  282 IN STRESS PERIOD    1
                    SECONDS     MINUTES      HOURS       DAYS        YEARS
                    -----------------------------------------------------------
   TIME STEP LENGTH  86400.      1440.0      24.000      1.0000     2.73785E-03
 STRESS PERIOD TIME 2.43648E+07 4.06080E+05  6768.0      282.00     0.77207    
         TOTAL TIME 2.43648E+07 4.06080E+05  6768.0      282.00     0.77207    
1
 
 SOLVING FOR HEAD 
                                                   Max.-Head-Change                        Max.-Flux-Residual
  Residual-Control   Outer-Iter.   Inner-Iter.     Column Row Layer    Max.-Head-Change    Column Row Layer    Max.-Flux-Residual            L2-New               L2-Old           Solver-Max-Delh
          0                 1           2            28    2     1      -0.2066110753E-01      29    3    1      -0.2729573833E+03      0.1512537814E+04      0.7659979609E+01     -0.2066110753E-01
          0                 2           2            28    2     1       0.1784030510E-02      29    3    1       0.2729334077E+02      0.1512358706E+03      0.1512537814E+04      0.1784030510E-02

    ------------------------------------------------
       NWT REQUIRED            2 OUTER ITERATIONS 
       AND A TOTAL OF          4 INNER ITERATIONS.
    ------------------------------------------------

 OUTPUT CONTROL FOR STRESS PERIOD    1   TIME STEP  283
    SAVE HEAD FOR ALL LAYERS
    SAVE DRAWDOWN FOR ALL LAYERS
    SAVE BUDGET
    PRINT BUDGET
 UBDSV1 SAVING "         STORAGE" ON UNIT   9 AT TIME STEP283, STRESS PERIOD   1
 UBDSV2 SAVING "   CONSTANT HEAD" ON UNIT   9 AT TIME STEP283, STRESS PERIOD   1
 UBDSV1 SAVING "FLOW RIGHT FACE " ON UNIT   9 AT TIME STEP283, STRESS PERIOD   1
 UBDSV1 SAVING "FLOW FRONT FACE " ON UNIT   9 AT TIME STEP283, STRESS PERIOD   1
 UBDSV4 SAVING "   RIVER LEAKAGE" ON UNIT   9 AT TIME STEP283, STRESS PERIOD   1
 UBDSV3 SAVING "        RECHARGE" ON UNIT   9 AT TIME STEP283, STRESS PERIOD   1

 HEAD WILL BE SAVED ON UNIT 5037 AT END OF TIME STEP  283, STRESS PERIOD    1

 DRAWDOWN WILL BE SAVED ON UNIT   38 AT END OF TIME STEP  283, STRESS PERIOD    1
1
  VOLUMETRIC BUDGET FOR ENTIRE MODEL AT END OF TIME STEP  283, STRESS PERIOD   1
  ------------------------------------------------------------------------------

     CUMULATIVE VOLUMES      L**3       RATES FOR THIS TIME STEP      L**3/T
     ------------------                 ------------------------

           IN:                                      IN:
           ---                                      ---
             STORAGE =    10955600.0000               STORAGE =       22048.9043
       CONSTANT HEAD =           0.0000         CONSTANT HEAD =           0.0000
       RIVER LEAKAGE =     1676402.5000         RIVER LEAKAGE =        6627.9790
            RECHARGE =     3139514.7500              RECHARGE =          45.5387

            TOTAL IN =    15771517.0000              TOTAL IN =       28722.4219

          OUT:                                     OUT:
          ----                                     ----
             STORAGE =     5312873.0000               STORAGE =         910.1522
       CONSTANT HEAD =           0.0000         CONSTANT HEAD =           0.0000
       RIVER LEAKAGE =    10440372.0000         RIVER LEAKAGE =       27707.4160
            RECHARGE =           0.0000              RECHARGE =           0.0000

           TOTAL OUT =    15753245.0000             TOTAL OUT =       28617.5684

            IN - OUT =       18272.0000              IN - OUT =         104.8535

 PERCENT DISCREPANCY =           0.12     PERCENT DISCREPANCY =           0.37






         TIME SUMMARY AT END OF TIME STEP  283 IN STRESS PERIOD    1
                    SECONDS     MINUTES      HOURS       DAYS        YEARS
                    -----------------------------------------------------------
   TIME STEP LENGTH  86400.      1440.0      24.000      1.0000     2.73785E-03
 STRESS PERIOD TIME 2.44512E+07 4.07520E+05  6792.0      283.00     0.77481    
         TOTAL TIME 2.44512E+07 4.07520E+05  6792.0      283.00     0.77481    
1
 
 SOLVING FOR HEAD 
                                                   Max.-Head-Change                        Max.-Flux-Residual
  Residual-Control   Outer-Iter.   Inner-Iter.     Column Row Layer    Max.-Head-Change    Column Row Layer    Max.-Flux-Residual            L2-New               L2-Old           Solver-Max-Delh
          0                 1           2            28    2     1      -0.2060138048E-01      29    3    1      -0.2721616550E+03      0.1509241402E+04      0.7573776920E+01     -0.2060138048E-01
          0                 2           2            17   18     1       0.2621944175E-02      17   18    1       0.2910169898E+02      0.1536866447E+03      0.1509241402E+04      0.2621944175E-02

    ------------------------------------------------
       NWT REQUIRED            2 OUTER ITERATIONS 
       AND A TOTAL OF          4 INNER ITERATIONS.
    ------------------------------------------------

 OUTPUT CONTROL FOR STRESS PERIOD    1   TIME STEP  284
    SAVE HEAD FOR ALL LAYERS
    SAVE DRAWDOWN FOR ALL LAYERS
    SAVE BUDGET
    PRINT BUDGET
 UBDSV1 SAVING "         STORAGE" ON UNIT   9 AT TIME STEP284, STRESS PERIOD   1
 UBDSV2 SAVING "   CONSTANT HEAD" ON UNIT   9 AT TIME STEP284, STRESS PERIOD   1
 UBDSV1 SAVING "FLOW RIGHT FACE " ON UNIT   9 AT TIME STEP284, STRESS PERIOD   1
 UBDSV1 SAVING "FLOW FRONT FACE " ON UNIT   9 AT TIME STEP284, STRESS PERIOD   1
 UBDSV4 SAVING "   RIVER LEAKAGE" ON UNIT   9 AT TIME STEP284, STRESS PERIOD   1
 UBDSV3 SAVING "        RECHARGE" ON UNIT   9 AT TIME STEP284, STRESS PERIOD   1

 HEAD WILL BE SAVED ON UNIT 5037 AT END OF TIME STEP  284, STRESS PERIOD    1

 DRAWDOWN WILL BE SAVED ON UNIT   38 AT END OF TIME STEP  284, STRESS PERIOD    1
1
  VOLUMETRIC BUDGET FOR ENTIRE MODEL AT END OF TIME STEP  284, STRESS PERIOD   1
  ------------------------------------------------------------------------------

     CUMULATIVE VOLUMES      L**3       RATES FOR THIS TIME STEP      L**3/T
     ------------------                 ------------------------

           IN:                                      IN:
           ---                                      ---
             STORAGE =    10977616.0000               STORAGE =       22015.9531
       CONSTANT HEAD =           0.0000         CONSTANT HEAD =           0.0000
       RIVER LEAKAGE =     1683034.6250         RIVER LEAKAGE =        6632.1147
            RECHARGE =     3139560.0000              RECHARGE =          45.2269

            TOTAL IN =    15800211.0000              TOTAL IN =       28693.2949

          OUT:                                     OUT:
          ----                                     ----
             STORAGE =     5313774.0000               STORAGE =         901.1985
       CONSTANT HEAD =           0.0000         CONSTANT HEAD =           0.0000
       RIVER LEAKAGE =    10468058.0000         RIVER LEAKAGE =       27685.9844
            RECHARGE =           0.0000              RECHARGE =           0.0000

           TOTAL OUT =    15781832.0000             TOTAL OUT =       28587.1836

            IN - OUT =       18379.0000              IN - OUT =         106.1113

 PERCENT DISCREPANCY =           0.12     PERCENT DISCREPANCY =           0.37






         TIME SUMMARY AT END OF TIME STEP  284 IN STRESS PERIOD    1
                    SECONDS     MINUTES      HOURS       DAYS        YEARS
                    -----------------------------------------------------------
   TIME STEP LENGTH  86400.      1440.0      24.000      1.0000     2.73785E-03
 STRESS PERIOD TIME 2.45376E+07 4.08960E+05  6816.0      284.00     0.77755    
         TOTAL TIME 2.45376E+07 4.08960E+05  6816.0      284.00     0.77755    
1
 
 SOLVING FOR HEAD 
                                                   Max.-Head-Change                        Max.-Flux-Residual
  Residual-Control   Outer-Iter.   Inner-Iter.     Column Row Layer    Max.-Head-Change    Column Row Layer    Max.-Flux-Residual            L2-New               L2-Old           Solver-Max-Delh
          0                 1           2            28    2     1      -0.2054294821E-01      29    3    1      -0.2713835484E+03      0.1505966229E+04      0.7699322934E+01     -0.2054294821E-01
          0                 2           2            28    2     1       0.1773829789E-02      29    3    1       0.2713599306E+02      0.1505792779E+03      0.1505966229E+04      0.1773829789E-02

    ------------------------------------------------
       NWT REQUIRED            2 OUTER ITERATIONS 
       AND A TOTAL OF          4 INNER ITERATIONS.
    ------------------------------------------------

 OUTPUT CONTROL FOR STRESS PERIOD    1   TIME STEP  285
    SAVE HEAD FOR ALL LAYERS
    SAVE DRAWDOWN FOR ALL LAYERS
    SAVE BUDGET
    PRINT BUDGET
 UBDSV1 SAVING "         STORAGE" ON UNIT   9 AT TIME STEP285, STRESS PERIOD   1
 UBDSV2 SAVING "   CONSTANT HEAD" ON UNIT   9 AT TIME STEP285, STRESS PERIOD   1
 UBDSV1 SAVING "FLOW RIGHT FACE " ON UNIT   9 AT TIME STEP285, STRESS PERIOD   1
 UBDSV1 SAVING "FLOW FRONT FACE " ON UNIT   9 AT TIME STEP285, STRESS PERIOD   1
 UBDSV4 SAVING "   RIVER LEAKAGE" ON UNIT   9 AT TIME STEP285, STRESS PERIOD   1
 UBDSV3 SAVING "        RECHARGE" ON UNIT   9 AT TIME STEP285, STRESS PERIOD   1

 HEAD WILL BE SAVED ON UNIT 5037 AT END OF TIME STEP  285, STRESS PERIOD    1

 DRAWDOWN WILL BE SAVED ON UNIT   38 AT END OF TIME STEP  285, STRESS PERIOD    1
1
  VOLUMETRIC BUDGET FOR ENTIRE MODEL AT END OF TIME STEP  285, STRESS PERIOD   1
  ------------------------------------------------------------------------------

     CUMULATIVE VOLUMES      L**3       RATES FOR THIS TIME STEP      L**3/T
     ------------------                 ------------------------

           IN:                                      IN:
           ---                                      ---
             STORAGE =    10999596.0000               STORAGE =       21980.4043
       CONSTANT HEAD =           0.0000         CONSTANT HEAD =           0.0000
       RIVER LEAKAGE =     1689670.8750         RIVER LEAKAGE =        6636.2354
            RECHARGE =     3139605.0000              RECHARGE =          44.9188

            TOTAL IN =    15828872.0000              TOTAL IN =       28661.5586

          OUT:                                     OUT:
          ----                                     ----
             STORAGE =     5314666.5000               STORAGE =         892.4368
       CONSTANT HEAD =           0.0000         CONSTANT HEAD =           0.0000
       RIVER LEAKAGE =    10495723.0000         RIVER LEAKAGE =       27664.6172
            RECHARGE =           0.0000              RECHARGE =           0.0000

           TOTAL OUT =    15810390.0000             TOTAL OUT =       28557.0547

            IN - OUT =       18482.0000              IN - OUT =         104.5039

 PERCENT DISCREPANCY =           0.12     PERCENT DISCREPANCY =           0.37






         TIME SUMMARY AT END OF TIME STEP  285 IN STRESS PERIOD    1
                    SECONDS     MINUTES      HOURS       DAYS        YEARS
                    -----------------------------------------------------------
   TIME STEP LENGTH  86400.      1440.0      24.000      1.0000     2.73785E-03
 STRESS PERIOD TIME 2.46240E+07 4.10400E+05  6840.0      285.00     0.78029    
         TOTAL TIME 2.46240E+07 4.10400E+05  6840.0      285.00     0.78029    
1
 
 SOLVING FOR HEAD 
                                                   Max.-Head-Change                        Max.-Flux-Residual
  Residual-Control   Outer-Iter.   Inner-Iter.     Column Row Layer    Max.-Head-Change    Column Row Layer    Max.-Flux-Residual            L2-New               L2-Old           Solver-Max-Delh
          0                 1           2            28    2     1      -0.2048463496E-01      29    3    1      -0.2706091288E+03      0.1502682519E+04      0.7547024406E+01     -0.2048463496E-01
          0                 2           2            28    2     1       0.1768795584E-02      29    3    1       0.2705856853E+02      0.1502511581E+03      0.1502682519E+04      0.1768795584E-02

    ------------------------------------------------
       NWT REQUIRED            2 OUTER ITERATIONS 
       AND A TOTAL OF          4 INNER ITERATIONS.
    ------------------------------------------------

 OUTPUT CONTROL FOR STRESS PERIOD    1   TIME STEP  286
    SAVE HEAD FOR ALL LAYERS
    SAVE DRAWDOWN FOR ALL LAYERS
    SAVE BUDGET
    PRINT BUDGET
 UBDSV1 SAVING "         STORAGE" ON UNIT   9 AT TIME STEP286, STRESS PERIOD   1
 UBDSV2 SAVING "   CONSTANT HEAD" ON UNIT   9 AT TIME STEP286, STRESS PERIOD   1
 UBDSV1 SAVING "FLOW RIGHT FACE " ON UNIT   9 AT TIME STEP286, STRESS PERIOD   1
 UBDSV1 SAVING "FLOW FRONT FACE " ON UNIT   9 AT TIME STEP286, STRESS PERIOD   1
 UBDSV4 SAVING "   RIVER LEAKAGE" ON UNIT   9 AT TIME STEP286, STRESS PERIOD   1
 UBDSV3 SAVING "        RECHARGE" ON UNIT   9 AT TIME STEP286, STRESS PERIOD   1

 HEAD WILL BE SAVED ON UNIT 5037 AT END OF TIME STEP  286, STRESS PERIOD    1

 DRAWDOWN WILL BE SAVED ON UNIT   38 AT END OF TIME STEP  286, STRESS PERIOD    1
1
  VOLUMETRIC BUDGET FOR ENTIRE MODEL AT END OF TIME STEP  286, STRESS PERIOD   1
  ------------------------------------------------------------------------------

     CUMULATIVE VOLUMES      L**3       RATES FOR THIS TIME STEP      L**3/T
     ------------------                 ------------------------

           IN:                                      IN:
           ---                                      ---
             STORAGE =    11021542.0000               STORAGE =       21946.4395
       CONSTANT HEAD =           0.0000         CONSTANT HEAD =           0.0000
       RIVER LEAKAGE =     1696311.2500         RIVER LEAKAGE =        6640.3628
            RECHARGE =     3139649.5000              RECHARGE =          44.6145

            TOTAL IN =    15857502.0000              TOTAL IN =       28631.4180

          OUT:                                     OUT:
          ----                                     ----
             STORAGE =     5315550.5000               STORAGE =         883.7621
       CONSTANT HEAD =           0.0000         CONSTANT HEAD =           0.0000
       RIVER LEAKAGE =    10523366.0000         RIVER LEAKAGE =       27643.3105
            RECHARGE =           0.0000              RECHARGE =           0.0000

           TOTAL OUT =    15838916.0000             TOTAL OUT =       28527.0723

            IN - OUT =       18586.0000              IN - OUT =         104.3457

 PERCENT DISCREPANCY =           0.12     PERCENT DISCREPANCY =           0.37






         TIME SUMMARY AT END OF TIME STEP  286 IN STRESS PERIOD    1
                    SECONDS     MINUTES      HOURS       DAYS        YEARS
                    -----------------------------------------------------------
   TIME STEP LENGTH  86400.      1440.0      24.000      1.0000     2.73785E-03
 STRESS PERIOD TIME 2.47104E+07 4.11840E+05  6864.0      286.00     0.78303    
         TOTAL TIME 2.47104E+07 4.11840E+05  6864.0      286.00     0.78303    
1
 
 SOLVING FOR HEAD 
                                                   Max.-Head-Change                        Max.-Flux-Residual
  Residual-Control   Outer-Iter.   Inner-Iter.     Column Row Layer    Max.-Head-Change    Column Row Layer    Max.-Flux-Residual            L2-New               L2-Old           Solver-Max-Delh
          0                 1           2            13    4     1       0.4277647909E+03      29   10    1       0.3791837651E+04      0.2628154283E+05      0.7533100224E+01      0.4277647909E+03
          0                 2           2            11    6     1       0.1050397875E+04      30   20    1      -0.4328152648E+04      0.6691108340E+04      0.2628154283E+05      0.1050397875E+04
          0                 3           2            11    6     1      -0.9070832473E+02      30   20    1      -0.2165412057E+03      0.4292955675E+03      0.6691108340E+04     -0.9070832473E+02
          0                 4           2            11    6     1      -0.4535461680E+01      30   20    1      -0.1082522407E+02      0.2127628252E+02      0.4292955675E+03     -0.4535461680E+01
          0                 5           2            11    6     1      -0.2267300011E+00      31   21    1       0.1264469285E+01      0.1650984830E+01      0.2127628252E+02     -0.2267300011E+00
          0                 6           2            11    6     1      -0.1133207899E-01      31   21    1       0.1121245582E+01      0.1122506226E+01      0.1650984830E+01     -0.1133207899E-01

    ------------------------------------------------
       NWT REQUIRED            6 OUTER ITERATIONS 
       AND A TOTAL OF         12 INNER ITERATIONS.
    ------------------------------------------------

 OUTPUT CONTROL FOR STRESS PERIOD    1   TIME STEP  287
    SAVE HEAD FOR ALL LAYERS
    SAVE DRAWDOWN FOR ALL LAYERS
    SAVE BUDGET
    PRINT BUDGET
 UBDSV1 SAVING "         STORAGE" ON UNIT   9 AT TIME STEP287, STRESS PERIOD   1
 UBDSV2 SAVING "   CONSTANT HEAD" ON UNIT   9 AT TIME STEP287, STRESS PERIOD   1
 UBDSV1 SAVING "FLOW RIGHT FACE " ON UNIT   9 AT TIME STEP287, STRESS PERIOD   1
 UBDSV1 SAVING "FLOW FRONT FACE " ON UNIT   9 AT TIME STEP287, STRESS PERIOD   1
 UBDSV4 SAVING "   RIVER LEAKAGE" ON UNIT   9 AT TIME STEP287, STRESS PERIOD   1
 UBDSV3 SAVING "        RECHARGE" ON UNIT   9 AT TIME STEP287, STRESS PERIOD   1

 HEAD WILL BE SAVED ON UNIT 5037 AT END OF TIME STEP  287, STRESS PERIOD    1

 DRAWDOWN WILL BE SAVED ON UNIT   38 AT END OF TIME STEP  287, STRESS PERIOD    1
1
  VOLUMETRIC BUDGET FOR ENTIRE MODEL AT END OF TIME STEP  287, STRESS PERIOD   1
  ------------------------------------------------------------------------------

     CUMULATIVE VOLUMES      L**3       RATES FOR THIS TIME STEP      L**3/T
     ------------------                 ------------------------

           IN:                                      IN:
           ---                                      ---
             STORAGE =    11034475.0000               STORAGE =       12933.2520
       CONSTANT HEAD =           0.0000         CONSTANT HEAD =           0.0000
       RIVER LEAKAGE =     1698228.3750         RIVER LEAKAGE =        1917.0647
            RECHARGE =     3545049.5000              RECHARGE =      405400.0000

            TOTAL IN =    16277752.0000              TOTAL IN =      420250.3125

          OUT:                                     OUT:
          ----                                     ----
             STORAGE =     5554354.0000               STORAGE =      238803.3594
       CONSTANT HEAD =           0.0000         CONSTANT HEAD =           0.0000
       RIVER LEAKAGE =    10704813.0000         RIVER LEAKAGE =      181447.0781
            RECHARGE =           0.0000              RECHARGE =           0.0000

           TOTAL OUT =    16259167.0000             TOTAL OUT =      420250.4375

            IN - OUT =       18585.0000              IN - OUT =          -0.1250

 PERCENT DISCREPANCY =           0.11     PERCENT DISCREPANCY =          -0.00






         TIME SUMMARY AT END OF TIME STEP  287 IN STRESS PERIOD    1
                    SECONDS     MINUTES      HOURS       DAYS        YEARS
                    -----------------------------------------------------------
   TIME STEP LENGTH  86400.      1440.0      24.000      1.0000     2.73785E-03
 STRESS PERIOD TIME 2.47968E+07 4.13280E+05  6888.0      287.00     0.78576    
         TOTAL TIME 2.47968E+07 4.13280E+05  6888.0      287.00     0.78576    
1
 
 SOLVING FOR HEAD 
                                                   Max.-Head-Change                        Max.-Flux-Residual
  Residual-Control   Outer-Iter.   Inner-Iter.     Column Row Layer    Max.-Head-Change    Column Row Layer    Max.-Flux-Residual            L2-New               L2-Old           Solver-Max-Delh
          0                 1           2            13    4     1       0.3386188105E+04      17    6    1       0.1415977982E+05      0.9518019164E+05      0.1122506226E+01      0.3386188105E+04
          0                 2           2            13    4     1      -0.2924435249E+03       6    3    1      -0.1723548344E+05      0.2509083387E+05      0.9518019164E+05     -0.2924435249E+03
          0                 3           2            13    4     1      -0.1462232257E+02       6    3    1      -0.8639101394E+03      0.1261383663E+04      0.2509083387E+05     -0.1462232257E+02
          0                 4           2            13    4     1      -0.7309772294E+00       6    3    1      -0.4319221703E+02      0.6306546845E+02      0.1261383663E+04     -0.7309772294E+00
          0                 5           2            13    4     1      -0.3653460797E-01       6    3    1      -0.2158759339E+01      0.3203096389E+01      0.6306546845E+02     -0.3653460797E-01

    ------------------------------------------------
       NWT REQUIRED            5 OUTER ITERATIONS 
       AND A TOTAL OF         10 INNER ITERATIONS.
    ------------------------------------------------

 OUTPUT CONTROL FOR STRESS PERIOD    1   TIME STEP  288
    SAVE HEAD FOR ALL LAYERS
    SAVE DRAWDOWN FOR ALL LAYERS
    SAVE BUDGET
    PRINT BUDGET
 UBDSV1 SAVING "         STORAGE" ON UNIT   9 AT TIME STEP288, STRESS PERIOD   1
 UBDSV2 SAVING "   CONSTANT HEAD" ON UNIT   9 AT TIME STEP288, STRESS PERIOD   1
 UBDSV1 SAVING "FLOW RIGHT FACE " ON UNIT   9 AT TIME STEP288, STRESS PERIOD   1
 UBDSV1 SAVING "FLOW FRONT FACE " ON UNIT   9 AT TIME STEP288, STRESS PERIOD   1
 UBDSV4 SAVING "   RIVER LEAKAGE" ON UNIT   9 AT TIME STEP288, STRESS PERIOD   1
 UBDSV3 SAVING "        RECHARGE" ON UNIT   9 AT TIME STEP288, STRESS PERIOD   1

 HEAD WILL BE SAVED ON UNIT 5037 AT END OF TIME STEP  288, STRESS PERIOD    1

 DRAWDOWN WILL BE SAVED ON UNIT   38 AT END OF TIME STEP  288, STRESS PERIOD    1
1
  VOLUMETRIC BUDGET FOR ENTIRE MODEL AT END OF TIME STEP  288, STRESS PERIOD   1
  ------------------------------------------------------------------------------

     CUMULATIVE VOLUMES      L**3       RATES FOR THIS TIME STEP      L**3/T
     ------------------                 ------------------------

           IN:                                      IN:
           ---                                      ---
             STORAGE =    11044652.0000               STORAGE =       10177.3564
       CONSTANT HEAD =           0.0000         CONSTANT HEAD =           0.0000
       RIVER LEAKAGE =     1732639.1250         RIVER LEAKAGE =       34410.8047
            RECHARGE =     4556836.0000              RECHARGE =     1011786.4375

            TOTAL IN =    17334128.0000              TOTAL IN =     1056374.6250

          OUT:                                     OUT:
          ----                                     ----
             STORAGE =     6277689.5000               STORAGE =      723335.6250
       CONSTANT HEAD =           0.0000         CONSTANT HEAD =           0.0000
       RIVER LEAKAGE =    11037853.0000         RIVER LEAKAGE =      333039.5625
            RECHARGE =           0.0000              RECHARGE =           0.0000

           TOTAL OUT =    17315542.0000             TOTAL OUT =     1056375.2500

            IN - OUT =       18586.0000              IN - OUT =          -0.6250

 PERCENT DISCREPANCY =           0.11     PERCENT DISCREPANCY =          -0.00






         TIME SUMMARY AT END OF TIME STEP  288 IN STRESS PERIOD    1
                    SECONDS     MINUTES      HOURS       DAYS        YEARS
                    -----------------------------------------------------------
   TIME STEP LENGTH  86400.      1440.0      24.000      1.0000     2.73785E-03
 STRESS PERIOD TIME 2.48832E+07 4.14720E+05  6912.0      288.00     0.78850    
         TOTAL TIME 2.48832E+07 4.14720E+05  6912.0      288.00     0.78850    
1
 
 SOLVING FOR HEAD 
                                                   Max.-Head-Change                        Max.-Flux-Residual
  Residual-Control   Outer-Iter.   Inner-Iter.     Column Row Layer    Max.-Head-Change    Column Row Layer    Max.-Flux-Residual            L2-New               L2-Old           Solver-Max-Delh
          0                 1           2            13    4     1       0.6834117215E+03      38   18    1       0.5560298198E+04      0.3499381153E+05      0.3203096389E+01      0.6834117215E+03
          0                 2           2            13    4     1      -0.5902970145E+02      29    5    1       0.1305510261E+04      0.3719823465E+04      0.3499381153E+05     -0.5902970145E+02
          0                 3           2            13    4     1      -0.2951514647E+01      29    5    1      -0.1354610461E+03      0.2189945898E+03      0.3719823465E+04     -0.2951514647E+01
          0                 4           2            13    4     1      -0.1475476955E+00      29    5    1      -0.6773386394E+01      0.1102951342E+02      0.2189945898E+03     -0.1475476955E+00
          0                 5           2            13    4     1      -0.7374507709E-02      34   22    1      -0.1292194198E+01      0.1403297955E+01      0.1102951342E+02     -0.7374507709E-02

    ------------------------------------------------
       NWT REQUIRED            5 OUTER ITERATIONS 
       AND A TOTAL OF         10 INNER ITERATIONS.
    ------------------------------------------------

 OUTPUT CONTROL FOR STRESS PERIOD    1   TIME STEP  289
    SAVE HEAD FOR ALL LAYERS
    SAVE DRAWDOWN FOR ALL LAYERS
    SAVE BUDGET
    PRINT BUDGET
 UBDSV1 SAVING "         STORAGE" ON UNIT   9 AT TIME STEP289, STRESS PERIOD   1
 UBDSV2 SAVING "   CONSTANT HEAD" ON UNIT   9 AT TIME STEP289, STRESS PERIOD   1
 UBDSV1 SAVING "FLOW RIGHT FACE " ON UNIT   9 AT TIME STEP289, STRESS PERIOD   1
 UBDSV1 SAVING "FLOW FRONT FACE " ON UNIT   9 AT TIME STEP289, STRESS PERIOD   1
 UBDSV4 SAVING "   RIVER LEAKAGE" ON UNIT   9 AT TIME STEP289, STRESS PERIOD   1
 UBDSV3 SAVING "        RECHARGE" ON UNIT   9 AT TIME STEP289, STRESS PERIOD   1

 HEAD WILL BE SAVED ON UNIT 5037 AT END OF TIME STEP  289, STRESS PERIOD    1

 DRAWDOWN WILL BE SAVED ON UNIT   38 AT END OF TIME STEP  289, STRESS PERIOD    1
1
  VOLUMETRIC BUDGET FOR ENTIRE MODEL AT END OF TIME STEP  289, STRESS PERIOD   1
  ------------------------------------------------------------------------------

     CUMULATIVE VOLUMES      L**3       RATES FOR THIS TIME STEP      L**3/T
     ------------------                 ------------------------

           IN:                                      IN:
           ---                                      ---
             STORAGE =    11106560.0000               STORAGE =       61908.3320
       CONSTANT HEAD =           0.0000         CONSTANT HEAD =           0.0000
       RIVER LEAKAGE =     1741519.8750         RIVER LEAKAGE =        8880.8076
            RECHARGE =     5107611.0000              RECHARGE =      550774.8750

            TOTAL IN =    17955692.0000              TOTAL IN =      621564.0000

          OUT:                                     OUT:
          ----                                     ----
             STORAGE =     6542342.5000               STORAGE =      264653.0000
       CONSTANT HEAD =           0.0000         CONSTANT HEAD =           0.0000
       RIVER LEAKAGE =    11394765.0000         RIVER LEAKAGE =      356912.3125
            RECHARGE =           0.0000              RECHARGE =           0.0000

           TOTAL OUT =    17937108.0000             TOTAL OUT =      621565.3125

            IN - OUT =       18584.0000              IN - OUT =          -1.3125

 PERCENT DISCREPANCY =           0.10     PERCENT DISCREPANCY =          -0.00






         TIME SUMMARY AT END OF TIME STEP  289 IN STRESS PERIOD    1
                    SECONDS     MINUTES      HOURS       DAYS        YEARS
                    -----------------------------------------------------------
   TIME STEP LENGTH  86400.      1440.0      24.000      1.0000     2.73785E-03
 STRESS PERIOD TIME 2.49696E+07 4.16160E+05  6936.0      289.00     0.79124    
         TOTAL TIME 2.49696E+07 4.16160E+05  6936.0      289.00     0.79124    
1
 
 SOLVING FOR HEAD 
                                                   Max.-Head-Change                        Max.-Flux-Residual
  Residual-Control   Outer-Iter.   Inner-Iter.     Column Row Layer    Max.-Head-Change    Column Row Layer    Max.-Flux-Residual            L2-New               L2-Old           Solver-Max-Delh
          0                 1           2            11    6     1      -0.1012018301E+03      27    4    1       0.4340575731E+04      0.3212300406E+05      0.1403297955E+01     -0.1012018301E+03
          0                 2           2            11    6     1       0.8740149473E+01      25    3    1       0.7474951795E+03      0.3283680824E+04      0.3212300406E+05      0.8740149473E+01
          0                 3           2            11    6     1       0.4370117614E+00      25    3    1      -0.7360300143E+02      0.1764120396E+03      0.3283680824E+04      0.4370117614E+00
          0                 4           2            11    6     1       0.2184643661E-01      25    3    1      -0.3680152029E+01      0.8953812748E+01      0.1764120396E+03      0.2184643661E-01

    ------------------------------------------------
       NWT REQUIRED            4 OUTER ITERATIONS 
       AND A TOTAL OF          8 INNER ITERATIONS.
    ------------------------------------------------

 OUTPUT CONTROL FOR STRESS PERIOD    1   TIME STEP  290
    SAVE HEAD FOR ALL LAYERS
    SAVE DRAWDOWN FOR ALL LAYERS
    SAVE BUDGET
    PRINT BUDGET
 UBDSV1 SAVING "         STORAGE" ON UNIT   9 AT TIME STEP290, STRESS PERIOD   1
 UBDSV2 SAVING "   CONSTANT HEAD" ON UNIT   9 AT TIME STEP290, STRESS PERIOD   1
 UBDSV1 SAVING "FLOW RIGHT FACE " ON UNIT   9 AT TIME STEP290, STRESS PERIOD   1
 UBDSV1 SAVING "FLOW FRONT FACE " ON UNIT   9 AT TIME STEP290, STRESS PERIOD   1
 UBDSV4 SAVING "   RIVER LEAKAGE" ON UNIT   9 AT TIME STEP290, STRESS PERIOD   1
 UBDSV3 SAVING "        RECHARGE" ON UNIT   9 AT TIME STEP290, STRESS PERIOD   1

 HEAD WILL BE SAVED ON UNIT 5037 AT END OF TIME STEP  290, STRESS PERIOD    1

 DRAWDOWN WILL BE SAVED ON UNIT   38 AT END OF TIME STEP  290, STRESS PERIOD    1
1
  VOLUMETRIC BUDGET FOR ENTIRE MODEL AT END OF TIME STEP  290, STRESS PERIOD   1
  ------------------------------------------------------------------------------

     CUMULATIVE VOLUMES      L**3       RATES FOR THIS TIME STEP      L**3/T
     ------------------                 ------------------------

           IN:                                      IN:
           ---                                      ---
             STORAGE =    11184995.0000               STORAGE =       78434.7188
       CONSTANT HEAD =           0.0000         CONSTANT HEAD =           0.0000
       RIVER LEAKAGE =     1746540.6250         RIVER LEAKAGE =        5020.7520
            RECHARGE =     5513975.0000              RECHARGE =      406364.0312

            TOTAL IN =    18445512.0000              TOTAL IN =      489819.5000

          OUT:                                     OUT:
          ----                                     ----
             STORAGE =     6726453.5000               STORAGE =      184111.0312
       CONSTANT HEAD =           0.0000         CONSTANT HEAD =           0.0000
       RIVER LEAKAGE =    11700473.0000         RIVER LEAKAGE =      305708.4688
            RECHARGE =           0.0000              RECHARGE =           0.0000

           TOTAL OUT =    18426926.0000             TOTAL OUT =      489819.5000

            IN - OUT =       18586.0000              IN - OUT =           0.0000

 PERCENT DISCREPANCY =           0.10     PERCENT DISCREPANCY =           0.00






         TIME SUMMARY AT END OF TIME STEP  290 IN STRESS PERIOD    1
                    SECONDS     MINUTES      HOURS       DAYS        YEARS
                    -----------------------------------------------------------
   TIME STEP LENGTH  86400.      1440.0      24.000      1.0000     2.73785E-03
 STRESS PERIOD TIME 2.50560E+07 4.17600E+05  6960.0      290.00     0.79398    
         TOTAL TIME 2.50560E+07 4.17600E+05  6960.0      290.00     0.79398    
1
 
 SOLVING FOR HEAD 
                                                   Max.-Head-Change                        Max.-Flux-Residual
  Residual-Control   Outer-Iter.   Inner-Iter.     Column Row Layer    Max.-Head-Change    Column Row Layer    Max.-Flux-Residual            L2-New               L2-Old           Solver-Max-Delh
          0                 1           2            11    6     1       0.5861557503E+03      28    5    1       0.4399217019E+04      0.2213248337E+05      0.8953812748E+01      0.5861557503E+03
          0                 2           2            11    6     1      -0.5060349413E+02      38   18    1      -0.6788173895E+04      0.8389303709E+04      0.2213248337E+05     -0.5060349413E+02
          0                 3           2            11    6     1      -0.2530200193E+01      38   18    1      -0.3397346883E+03      0.5672749078E+03      0.8389303709E+04     -0.2530200193E+01
          0                 4           2            11    6     1      -0.1264859753E+00      38   18    1      -0.1698414612E+02      0.2842582193E+02      0.5672749078E+03     -0.1264859753E+00
          0                 5           2            11    6     1      -0.6321832384E-02      34   22    1      -0.1615113339E+01      0.2149829325E+01      0.2842582193E+02     -0.6321832384E-02

    ------------------------------------------------
       NWT REQUIRED            5 OUTER ITERATIONS 
       AND A TOTAL OF         10 INNER ITERATIONS.
    ------------------------------------------------

 OUTPUT CONTROL FOR STRESS PERIOD    1   TIME STEP  291
    SAVE HEAD FOR ALL LAYERS
    SAVE DRAWDOWN FOR ALL LAYERS
    SAVE BUDGET
    PRINT BUDGET
 UBDSV1 SAVING "         STORAGE" ON UNIT   9 AT TIME STEP291, STRESS PERIOD   1
 UBDSV2 SAVING "   CONSTANT HEAD" ON UNIT   9 AT TIME STEP291, STRESS PERIOD   1
 UBDSV1 SAVING "FLOW RIGHT FACE " ON UNIT   9 AT TIME STEP291, STRESS PERIOD   1
 UBDSV1 SAVING "FLOW FRONT FACE " ON UNIT   9 AT TIME STEP291, STRESS PERIOD   1
 UBDSV4 SAVING "   RIVER LEAKAGE" ON UNIT   9 AT TIME STEP291, STRESS PERIOD   1
 UBDSV3 SAVING "        RECHARGE" ON UNIT   9 AT TIME STEP291, STRESS PERIOD   1

 HEAD WILL BE SAVED ON UNIT 5037 AT END OF TIME STEP  291, STRESS PERIOD    1

 DRAWDOWN WILL BE SAVED ON UNIT   38 AT END OF TIME STEP  291, STRESS PERIOD    1
1
  VOLUMETRIC BUDGET FOR ENTIRE MODEL AT END OF TIME STEP  291, STRESS PERIOD   1
  ------------------------------------------------------------------------------

     CUMULATIVE VOLUMES      L**3       RATES FOR THIS TIME STEP      L**3/T
     ------------------                 ------------------------

           IN:                                      IN:
           ---                                      ---
             STORAGE =    11209542.0000               STORAGE =       24546.8574
       CONSTANT HEAD =           0.0000         CONSTANT HEAD =           0.0000
       RIVER LEAKAGE =     1749536.5000         RIVER LEAKAGE =        2995.9038
            RECHARGE =     6032152.5000              RECHARGE =      518177.4062

            TOTAL IN =    18991230.0000              TOTAL IN =      545720.1875

          OUT:                                     OUT:
          ----                                     ----
             STORAGE =     6978815.0000               STORAGE =      252361.3750
       CONSTANT HEAD =           0.0000         CONSTANT HEAD =           0.0000
       RIVER LEAKAGE =    11993834.0000         RIVER LEAKAGE =      293360.5938
            RECHARGE =           0.0000              RECHARGE =           0.0000

           TOTAL OUT =    18972648.0000             TOTAL OUT =      545722.0000

            IN - OUT =       18582.0000              IN - OUT =          -1.8125

 PERCENT DISCREPANCY =           0.10     PERCENT DISCREPANCY =          -0.00






         TIME SUMMARY AT END OF TIME STEP  291 IN STRESS PERIOD    1
                    SECONDS     MINUTES      HOURS       DAYS        YEARS
                    -----------------------------------------------------------
   TIME STEP LENGTH  86400.      1440.0      24.000      1.0000     2.73785E-03
 STRESS PERIOD TIME 2.51424E+07 4.19040E+05  6984.0      291.00     0.79671    
         TOTAL TIME 2.51424E+07 4.19040E+05  6984.0      291.00     0.79671    
1
 
 SOLVING FOR HEAD 
                                                   Max.-Head-Change                        Max.-Flux-Residual
  Residual-Control   Outer-Iter.   Inner-Iter.     Column Row Layer    Max.-Head-Change    Column Row Layer    Max.-Flux-Residual            L2-New               L2-Old           Solver-Max-Delh
          0                 1           2            11    6     1       0.5907575288E+04      37   16    1       0.1086413572E+05      0.9188415774E+05      0.2149829325E+01      0.5907575288E+04
          0                 2           2            11    6     1      -0.5101997865E+03      32   19    1      -0.1144481742E+05      0.1792712427E+05      0.9188415774E+05     -0.5101997865E+03
          0                 3           2            11    6     1      -0.2551024962E+02      23   17    1       0.1862371710E+05      0.1954090249E+05      0.1792712427E+05     -0.2551024962E+02
          0                 4           2            11    6     1      -0.1275368580E+01      23   17    1       0.3283759879E+04      0.3439854358E+04      0.1954090249E+05     -0.1275368580E+01
          0                 5           2            11    6     1      -0.6374356031E-01      23   17    1       0.5821559021E+03      0.6097744339E+03      0.3439854358E+04     -0.6374356031E-01
          0                 6           2            23   17     1       0.8189440814E-02      23   17    1       0.1032997011E+03      0.1082025911E+03      0.6097744339E+03      0.8189440814E-02

    ------------------------------------------------
       NWT REQUIRED            6 OUTER ITERATIONS 
       AND A TOTAL OF         12 INNER ITERATIONS.
    ------------------------------------------------

 OUTPUT CONTROL FOR STRESS PERIOD    1   TIME STEP  292
    SAVE HEAD FOR ALL LAYERS
    SAVE DRAWDOWN FOR ALL LAYERS
    SAVE BUDGET
    PRINT BUDGET
 UBDSV1 SAVING "         STORAGE" ON UNIT   9 AT TIME STEP292, STRESS PERIOD   1
 UBDSV2 SAVING "   CONSTANT HEAD" ON UNIT   9 AT TIME STEP292, STRESS PERIOD   1
 UBDSV1 SAVING "FLOW RIGHT FACE " ON UNIT   9 AT TIME STEP292, STRESS PERIOD   1
 UBDSV1 SAVING "FLOW FRONT FACE " ON UNIT   9 AT TIME STEP292, STRESS PERIOD   1
 UBDSV4 SAVING "   RIVER LEAKAGE" ON UNIT   9 AT TIME STEP292, STRESS PERIOD   1
 UBDSV3 SAVING "        RECHARGE" ON UNIT   9 AT TIME STEP292, STRESS PERIOD   1

 HEAD WILL BE SAVED ON UNIT 5037 AT END OF TIME STEP  292, STRESS PERIOD    1

 DRAWDOWN WILL BE SAVED ON UNIT   38 AT END OF TIME STEP  292, STRESS PERIOD    1
1
  VOLUMETRIC BUDGET FOR ENTIRE MODEL AT END OF TIME STEP  292, STRESS PERIOD   1
  ------------------------------------------------------------------------------

     CUMULATIVE VOLUMES      L**3       RATES FOR THIS TIME STEP      L**3/T
     ------------------                 ------------------------

           IN:                                      IN:
           ---                                      ---
             STORAGE =    11217628.0000               STORAGE =        8086.2070
       CONSTANT HEAD =           0.0000         CONSTANT HEAD =           0.0000
       RIVER LEAKAGE =     1751028.2500         RIVER LEAKAGE =        1491.7996
            RECHARGE =     7921635.0000              RECHARGE =     1889482.3750

            TOTAL IN =    20890292.0000              TOTAL IN =     1899060.3750

          OUT:                                     OUT:
          ----                                     ----
             STORAGE =     8155691.5000               STORAGE =     1176876.3750
       CONSTANT HEAD =           0.0000         CONSTANT HEAD =           0.0000
       RIVER LEAKAGE =    12715993.0000         RIVER LEAKAGE =      722158.6875
            RECHARGE =           0.0000              RECHARGE =           0.0000

           TOTAL OUT =    20871684.0000             TOTAL OUT =     1899035.0000

            IN - OUT =       18608.0000              IN - OUT =          25.3750

 PERCENT DISCREPANCY =           0.09     PERCENT DISCREPANCY =           0.00






         TIME SUMMARY AT END OF TIME STEP  292 IN STRESS PERIOD    1
                    SECONDS     MINUTES      HOURS       DAYS        YEARS
                    -----------------------------------------------------------
   TIME STEP LENGTH  86400.      1440.0      24.000      1.0000     2.73785E-03
 STRESS PERIOD TIME 2.52288E+07 4.20480E+05  7008.0      292.00     0.79945    
         TOTAL TIME 2.52288E+07 4.20480E+05  7008.0      292.00     0.79945    
1
 
 SOLVING FOR HEAD 
                                                   Max.-Head-Change                        Max.-Flux-Residual
  Residual-Control   Outer-Iter.   Inner-Iter.     Column Row Layer    Max.-Head-Change    Column Row Layer    Max.-Flux-Residual            L2-New               L2-Old           Solver-Max-Delh
          0                 1           2            11    6     1       0.7007318186E+03      37   16    1       0.6748332291E+04      0.5036011129E+05      0.1921416819E+02      0.7007318186E+03
          0                 2           2            11    6     1      -0.5684563219E+02      37   19    1       0.5099343369E+04      0.1168441228E+05      0.5036011129E+05     -0.5684563219E+02
          0                 3           2            11    5     1      -0.4881217710E+01      26   19    1       0.3299154900E+04      0.3477462764E+04      0.1168441228E+05     -0.4881217710E+01
          0                 4           2            11    5     1      -0.2440633309E+00      26   19    1       0.5847625377E+03      0.5873784842E+03      0.3477462764E+04     -0.2440633309E+00
          0                 5           2            11    5     1      -0.1220084816E-01      26   19    1       0.1037615120E+03      0.1038914627E+03      0.5873784842E+03     -0.1220084816E-01

    ------------------------------------------------
       NWT REQUIRED            5 OUTER ITERATIONS 
       AND A TOTAL OF         10 INNER ITERATIONS.
    ------------------------------------------------

 OUTPUT CONTROL FOR STRESS PERIOD    1   TIME STEP  293
    SAVE HEAD FOR ALL LAYERS
    SAVE DRAWDOWN FOR ALL LAYERS
    SAVE BUDGET
    PRINT BUDGET
 UBDSV1 SAVING "         STORAGE" ON UNIT   9 AT TIME STEP293, STRESS PERIOD   1
 UBDSV2 SAVING "   CONSTANT HEAD" ON UNIT   9 AT TIME STEP293, STRESS PERIOD   1
 UBDSV1 SAVING "FLOW RIGHT FACE " ON UNIT   9 AT TIME STEP293, STRESS PERIOD   1
 UBDSV1 SAVING "FLOW FRONT FACE " ON UNIT   9 AT TIME STEP293, STRESS PERIOD   1
 UBDSV4 SAVING "   RIVER LEAKAGE" ON UNIT   9 AT TIME STEP293, STRESS PERIOD   1
 UBDSV3 SAVING "        RECHARGE" ON UNIT   9 AT TIME STEP293, STRESS PERIOD   1

 HEAD WILL BE SAVED ON UNIT 5037 AT END OF TIME STEP  293, STRESS PERIOD    1

 DRAWDOWN WILL BE SAVED ON UNIT   38 AT END OF TIME STEP  293, STRESS PERIOD    1
1
  VOLUMETRIC BUDGET FOR ENTIRE MODEL AT END OF TIME STEP  293, STRESS PERIOD   1
  ------------------------------------------------------------------------------

     CUMULATIVE VOLUMES      L**3       RATES FOR THIS TIME STEP      L**3/T
     ------------------                 ------------------------

           IN:                                      IN:
           ---                                      ---
             STORAGE =    11225867.0000               STORAGE =        8239.4346
       CONSTANT HEAD =           0.0000         CONSTANT HEAD =           0.0000
       RIVER LEAKAGE =     1764976.6250         RIVER LEAKAGE =       13948.3701
            RECHARGE =     8984638.0000              RECHARGE =     1063003.5000

            TOTAL IN =    21975482.0000              TOTAL IN =     1085191.2500

          OUT:                                     OUT:
          ----                                     ----
             STORAGE =     8790468.0000               STORAGE =      634776.1250
       CONSTANT HEAD =           0.0000         CONSTANT HEAD =           0.0000
       RIVER LEAKAGE =    13166387.0000         RIVER LEAKAGE =      450393.5625
            RECHARGE =           0.0000              RECHARGE =           0.0000

           TOTAL OUT =    21956856.0000             TOTAL OUT =     1085169.7500

            IN - OUT =       18626.0000              IN - OUT =          21.5000

 PERCENT DISCREPANCY =           0.08     PERCENT DISCREPANCY =           0.00






         TIME SUMMARY AT END OF TIME STEP  293 IN STRESS PERIOD    1
                    SECONDS     MINUTES      HOURS       DAYS        YEARS
                    -----------------------------------------------------------
   TIME STEP LENGTH  86400.      1440.0      24.000      1.0000     2.73785E-03
 STRESS PERIOD TIME 2.53152E+07 4.21920E+05  7032.0      293.00     0.80219    
         TOTAL TIME 2.53152E+07 4.21920E+05  7032.0      293.00     0.80219    
1
 
 SOLVING FOR HEAD 
                                                   Max.-Head-Change                        Max.-Flux-Residual
  Residual-Control   Outer-Iter.   Inner-Iter.     Column Row Layer    Max.-Head-Change    Column Row Layer    Max.-Flux-Residual            L2-New               L2-Old           Solver-Max-Delh
          0                 1           2            11    6     1      -0.1304459123E+04      17    6    1      -0.6453020911E+04      0.4797699529E+05      0.1887932450E+02     -0.1304459123E+04
          0                 2           2            11    6     1       0.1126578066E+03      36   14    1       0.2333195316E+04      0.5968337164E+04      0.4797699529E+05      0.1126578066E+03
          1                 2           0            11    6     1       0.7886046330E+02       9    4    1       0.2196088797E+05      0.2196539499E+05      0.5968337164E+04      0.1126578066E+03
          2                 2           0            11    6     1       0.5520232337E+02       9    4    1       0.1527264263E+05      0.1537749941E+05      0.2196539499E+05      0.1126578066E+03
          3                 2           0            11    6     1       0.3864162570E+02       9    4    1       0.1058458813E+05      0.1101058253E+05      0.1537749941E+05      0.1126578066E+03
          4                 2           0            11    6     1       0.2704913753E+02       9    4    1       0.7299871453E+04      0.8281138966E+04      0.1101058253E+05      0.1126578066E+03
          5                 2           0            11    6     1       0.1893439595E+02       9    4    1       0.4999061308E+04      0.6743410734E+04      0.8281138966E+04      0.1126578066E+03
          0                 3           2            11    6     1       0.9467115256E+02       9    4    1       0.3387755065E+04      0.6004310009E+04      0.6743410734E+04      0.9467115256E+02
          0                 4           2            11    6     1       0.4732658298E+01       9    4    1       0.6015634776E+03      0.7034334132E+03      0.6004310009E+04      0.4732658298E+01
          0                 5           2            11    6     1       0.2365406316E+00       9    4    1       0.1068002502E+03      0.1086750016E+03      0.7034334132E+03      0.2365406316E+00
          0                 6           2            11    6     1       0.1182005379E-01       9    4    1       0.1895687192E+02      0.2076055254E+02      0.1086750016E+03      0.1182005379E-01

    ------------------------------------------------
       NWT REQUIRED            6 OUTER ITERATIONS 
       AND A TOTAL OF         12 INNER ITERATIONS.
    ------------------------------------------------

 OUTPUT CONTROL FOR STRESS PERIOD    1   TIME STEP  294
    SAVE HEAD FOR ALL LAYERS
    SAVE DRAWDOWN FOR ALL LAYERS
    SAVE BUDGET
    PRINT BUDGET
 UBDSV1 SAVING "         STORAGE" ON UNIT   9 AT TIME STEP294, STRESS PERIOD   1
 UBDSV2 SAVING "   CONSTANT HEAD" ON UNIT   9 AT TIME STEP294, STRESS PERIOD   1
 UBDSV1 SAVING "FLOW RIGHT FACE " ON UNIT   9 AT TIME STEP294, STRESS PERIOD   1
 UBDSV1 SAVING "FLOW FRONT FACE " ON UNIT   9 AT TIME STEP294, STRESS PERIOD   1
 UBDSV4 SAVING "   RIVER LEAKAGE" ON UNIT   9 AT TIME STEP294, STRESS PERIOD   1
 UBDSV3 SAVING "        RECHARGE" ON UNIT   9 AT TIME STEP294, STRESS PERIOD   1

 HEAD WILL BE SAVED ON UNIT 5037 AT END OF TIME STEP  294, STRESS PERIOD    1

 DRAWDOWN WILL BE SAVED ON UNIT   38 AT END OF TIME STEP  294, STRESS PERIOD    1
1
  VOLUMETRIC BUDGET FOR ENTIRE MODEL AT END OF TIME STEP  294, STRESS PERIOD   1
  ------------------------------------------------------------------------------

     CUMULATIVE VOLUMES      L**3       RATES FOR THIS TIME STEP      L**3/T
     ------------------                 ------------------------

           IN:                                      IN:
           ---                                      ---
             STORAGE =    11366462.0000               STORAGE =      140594.8438
       CONSTANT HEAD =           0.0000         CONSTANT HEAD =           0.0000
       RIVER LEAKAGE =     1767108.3750         RIVER LEAKAGE =        2131.8054
            RECHARGE =     9562889.0000              RECHARGE =      578251.3125

            TOTAL IN =    22696460.0000              TOTAL IN =      720978.0000

          OUT:                                     OUT:
          ----                                     ----
             STORAGE =     9108074.0000               STORAGE =      317606.4688
       CONSTANT HEAD =           0.0000         CONSTANT HEAD =           0.0000
       RIVER LEAKAGE =    13569747.0000         RIVER LEAKAGE =      403359.7500
            RECHARGE =           0.0000              RECHARGE =           0.0000

           TOTAL OUT =    22677820.0000             TOTAL OUT =      720966.2500

            IN - OUT =       18640.0000              IN - OUT =          11.7500

 PERCENT DISCREPANCY =           0.08     PERCENT DISCREPANCY =           0.00






         TIME SUMMARY AT END OF TIME STEP  294 IN STRESS PERIOD    1
                    SECONDS     MINUTES      HOURS       DAYS        YEARS
                    -----------------------------------------------------------
   TIME STEP LENGTH  86400.      1440.0      24.000      1.0000     2.73785E-03
 STRESS PERIOD TIME 2.54016E+07 4.23360E+05  7056.0      294.00     0.80493    
         TOTAL TIME 2.54016E+07 4.23360E+05  7056.0      294.00     0.80493    
1
 
 SOLVING FOR HEAD 
                                                   Max.-Head-Change                        Max.-Flux-Residual
  Residual-Control   Outer-Iter.   Inner-Iter.     Column Row Layer    Max.-Head-Change    Column Row Layer    Max.-Flux-Residual            L2-New               L2-Old           Solver-Max-Delh
          0                 1           2            11    6     1      -0.1861123922E+04      26   14    1       0.3989546906E+04      0.3283842747E+05      0.2076055254E+02     -0.1861123922E+04
          0                 2           2            11    6     1       0.1607337321E+03       9    4    1       0.2043751293E+04      0.4109614233E+04      0.3283842747E+05      0.1607337321E+03
          0                 3           2            11    6     1       0.8036767113E+01      37    9    1       0.6997729456E+03      0.7656008604E+03      0.4109614233E+04      0.8036767113E+01
          0                 4           2            11    6     1       0.4017620134E+00      37    9    1       0.1242258779E+03      0.1251938383E+03      0.7656008604E+03      0.4017620134E+00
          0                 5           2            11    6     1       0.2008026662E-01      37    9    1       0.2205033934E+02      0.2206412556E+02      0.1251938383E+03      0.2008026662E-01

    ------------------------------------------------
       NWT REQUIRED            5 OUTER ITERATIONS 
       AND A TOTAL OF         10 INNER ITERATIONS.
    ------------------------------------------------

 OUTPUT CONTROL FOR STRESS PERIOD    1   TIME STEP  295
    SAVE HEAD FOR ALL LAYERS
    SAVE DRAWDOWN FOR ALL LAYERS
    SAVE BUDGET
    PRINT BUDGET
 UBDSV1 SAVING "         STORAGE" ON UNIT   9 AT TIME STEP295, STRESS PERIOD   1
 UBDSV2 SAVING "   CONSTANT HEAD" ON UNIT   9 AT TIME STEP295, STRESS PERIOD   1
 UBDSV1 SAVING "FLOW RIGHT FACE " ON UNIT   9 AT TIME STEP295, STRESS PERIOD   1
 UBDSV1 SAVING "FLOW FRONT FACE " ON UNIT   9 AT TIME STEP295, STRESS PERIOD   1
 UBDSV4 SAVING "   RIVER LEAKAGE" ON UNIT   9 AT TIME STEP295, STRESS PERIOD   1
 UBDSV3 SAVING "        RECHARGE" ON UNIT   9 AT TIME STEP295, STRESS PERIOD   1

 HEAD WILL BE SAVED ON UNIT 5037 AT END OF TIME STEP  295, STRESS PERIOD    1

 DRAWDOWN WILL BE SAVED ON UNIT   38 AT END OF TIME STEP  295, STRESS PERIOD    1
1
  VOLUMETRIC BUDGET FOR ENTIRE MODEL AT END OF TIME STEP  295, STRESS PERIOD   1
  ------------------------------------------------------------------------------

     CUMULATIVE VOLUMES      L**3       RATES FOR THIS TIME STEP      L**3/T
     ------------------                 ------------------------

           IN:                                      IN:
           ---                                      ---
             STORAGE =    11505145.0000               STORAGE =      138683.2500
       CONSTANT HEAD =           0.0000         CONSTANT HEAD =           0.0000
       RIVER LEAKAGE =     1768820.6250         RIVER LEAKAGE =        1712.2245
            RECHARGE =     9878782.0000              RECHARGE =      315893.2812

            TOTAL IN =    23152748.0000              TOTAL IN =      456288.7500

          OUT:                                     OUT:
          ----                                     ----
             STORAGE =     9301851.0000               STORAGE =      193777.2500
       CONSTANT HEAD =           0.0000         CONSTANT HEAD =           0.0000
       RIVER LEAKAGE =    13832255.0000         RIVER LEAKAGE =      262507.5625
            RECHARGE =           0.0000              RECHARGE =           0.0000

           TOTAL OUT =    23134106.0000             TOTAL OUT =      456284.8125

            IN - OUT =       18642.0000              IN - OUT =           3.9375

 PERCENT DISCREPANCY =           0.08     PERCENT DISCREPANCY =           0.00






         TIME SUMMARY AT END OF TIME STEP  295 IN STRESS PERIOD    1
                    SECONDS     MINUTES      HOURS       DAYS        YEARS
                    -----------------------------------------------------------
   TIME STEP LENGTH  86400.      1440.0      24.000      1.0000     2.73785E-03
 STRESS PERIOD TIME 2.54880E+07 4.24800E+05  7080.0      295.00     0.80767    
         TOTAL TIME 2.54880E+07 4.24800E+05  7080.0      295.00     0.80767    
1
 
 SOLVING FOR HEAD 
                                                   Max.-Head-Change                        Max.-Flux-Residual
  Residual-Control   Outer-Iter.   Inner-Iter.     Column Row Layer    Max.-Head-Change    Column Row Layer    Max.-Flux-Residual            L2-New               L2-Old           Solver-Max-Delh
          0                 1           2            11    6     1      -0.1807626337E+04      28    4    1       0.3394149440E+04      0.2459216335E+05      0.2206412556E+02     -0.1807626337E+04
          0                 2           2            11    6     1       0.1561131895E+03      37    9    1       0.1834877554E+04      0.3062561420E+04      0.2459216335E+05      0.1561131895E+03
          0                 3           2            11    6     1       0.7805737678E+01      37    9    1      -0.1840477331E+03      0.2218954786E+03      0.3062561420E+04      0.7805737678E+01
          0                 4           2            11    6     1       0.3902127362E+00      37    9    1      -0.9202375277E+01      0.1109409153E+02      0.2218954786E+03      0.3902127362E+00
          0                 5           2            11    6     1       0.1950302796E-01      37    9    1      -0.4600261712E+00      0.5545591526E+00      0.1109409153E+02      0.1950302796E-01

    ------------------------------------------------
       NWT REQUIRED            5 OUTER ITERATIONS 
       AND A TOTAL OF         10 INNER ITERATIONS.
    ------------------------------------------------

 OUTPUT CONTROL FOR STRESS PERIOD    1   TIME STEP  296
    SAVE HEAD FOR ALL LAYERS
    SAVE DRAWDOWN FOR ALL LAYERS
    SAVE BUDGET
    PRINT BUDGET
 UBDSV1 SAVING "         STORAGE" ON UNIT   9 AT TIME STEP296, STRESS PERIOD   1
 UBDSV2 SAVING "   CONSTANT HEAD" ON UNIT   9 AT TIME STEP296, STRESS PERIOD   1
 UBDSV1 SAVING "FLOW RIGHT FACE " ON UNIT   9 AT TIME STEP296, STRESS PERIOD   1
 UBDSV1 SAVING "FLOW FRONT FACE " ON UNIT   9 AT TIME STEP296, STRESS PERIOD   1
 UBDSV4 SAVING "   RIVER LEAKAGE" ON UNIT   9 AT TIME STEP296, STRESS PERIOD   1
 UBDSV3 SAVING "        RECHARGE" ON UNIT   9 AT TIME STEP296, STRESS PERIOD   1

 HEAD WILL BE SAVED ON UNIT 5037 AT END OF TIME STEP  296, STRESS PERIOD    1

 DRAWDOWN WILL BE SAVED ON UNIT   38 AT END OF TIME STEP  296, STRESS PERIOD    1
1
  VOLUMETRIC BUDGET FOR ENTIRE MODEL AT END OF TIME STEP  296, STRESS PERIOD   1
  ------------------------------------------------------------------------------

     CUMULATIVE VOLUMES      L**3       RATES FOR THIS TIME STEP      L**3/T
     ------------------                 ------------------------

           IN:                                      IN:
           ---                                      ---
             STORAGE =    11638400.0000               STORAGE =      133255.2500
       CONSTANT HEAD =           0.0000         CONSTANT HEAD =           0.0000
       RIVER LEAKAGE =     1770143.1250         RIVER LEAKAGE =        1322.4950
            RECHARGE =    10054344.0000              RECHARGE =      175561.5000

            TOTAL IN =    23462888.0000              TOTAL IN =      310139.2500

          OUT:                                     OUT:
          ----                                     ----
             STORAGE =     9429786.0000               STORAGE =      127934.5391
       CONSTANT HEAD =           0.0000         CONSTANT HEAD =           0.0000
       RIVER LEAKAGE =    14014460.0000         RIVER LEAKAGE =      182204.6094
            RECHARGE =           0.0000              RECHARGE =           0.0000

           TOTAL OUT =    23444246.0000             TOTAL OUT =      310139.1562

            IN - OUT =       18642.0000              IN - OUT =       9.3750E-02

 PERCENT DISCREPANCY =           0.08     PERCENT DISCREPANCY =           0.00






         TIME SUMMARY AT END OF TIME STEP  296 IN STRESS PERIOD    1
                    SECONDS     MINUTES      HOURS       DAYS        YEARS
                    -----------------------------------------------------------
   TIME STEP LENGTH  86400.      1440.0      24.000      1.0000     2.73785E-03
 STRESS PERIOD TIME 2.55744E+07 4.26240E+05  7104.0      296.00     0.81040    
         TOTAL TIME 2.55744E+07 4.26240E+05  7104.0      296.00     0.81040    
1
 
 SOLVING FOR HEAD 
                                                   Max.-Head-Change                        Max.-Flux-Residual
  Residual-Control   Outer-Iter.   Inner-Iter.     Column Row Layer    Max.-Head-Change    Column Row Layer    Max.-Flux-Residual            L2-New               L2-Old           Solver-Max-Delh
          0                 1           2            11    6     1      -0.1537769782E+04      15    2    1       0.2941935039E+04      0.1684770915E+05      0.5545591526E+00     -0.1537769782E+04
          0                 2           2            11    6     1       0.1328073955E+03      15    2    1      -0.2952448308E+03      0.1685471631E+04      0.1684770915E+05      0.1328073955E+03
          1                 2           0            11    6     1       0.9296517524E+02      16    4    1       0.9388243544E+04      0.9388651518E+04      0.1685471631E+04      0.1328073955E+03
          2                 2           0            11    6     1       0.6507562156E+02      16    4    1       0.6521741812E+04      0.6545953172E+04      0.9388651518E+04      0.1328073955E+03
          3                 2           0            11    6     1       0.4555293432E+02      16    4    1       0.4514146324E+04      0.4602533283E+04      0.6545953172E+04      0.1328073955E+03
          4                 2           0            11    6     1       0.3188705348E+02      16    4    1       0.3108317795E+04      0.3308163314E+04      0.4602533283E+04      0.1328073955E+03
          5                 2           0            11    6     1       0.2232093706E+02      16    4    1       0.2123987103E+04      0.2488535146E+04      0.3308163314E+04      0.1328073955E+03
          6                 2           0            11    6     1       0.1562465567E+02      16    4    1       0.1434832769E+04      0.2012911905E+04      0.2488535146E+04      0.1328073955E+03
          0                 3           2            11    6     1       0.1179652139E+03      16    4    1       0.9523645404E+03      0.1770291722E+04      0.2012911905E+04      0.1179652139E+03
          0                 4           2            11    6     1       0.5897140128E+01      16    4    1       0.1706562651E+03      0.1862395765E+03      0.1770291722E+04      0.5897140128E+01
                                                   Max.-Head-Change                        Max.-Flux-Residual
  Residual-Control   Outer-Iter.   Inner-Iter.     Column Row Layer    Max.-Head-Change    Column Row Layer    Max.-Flux-Residual            L2-New               L2-Old           Solver-Max-Delh
          0                 5           2            11    6     1       0.2947420166E+00      16    4    1       0.3037157814E+02      0.3059946755E+02      0.1862395765E+03      0.2947420166E+00
          0                 6           2            11    6     1       0.1472840613E-01      16    4    1       0.5394474075E+01      0.5397722595E+01      0.3059946755E+02      0.1472840613E-01

    ------------------------------------------------
       NWT REQUIRED            6 OUTER ITERATIONS 
       AND A TOTAL OF         12 INNER ITERATIONS.
    ------------------------------------------------

 OUTPUT CONTROL FOR STRESS PERIOD    1   TIME STEP  297
    SAVE HEAD FOR ALL LAYERS
    SAVE DRAWDOWN FOR ALL LAYERS
    SAVE BUDGET
    PRINT BUDGET
 UBDSV1 SAVING "         STORAGE" ON UNIT   9 AT TIME STEP297, STRESS PERIOD   1
 UBDSV2 SAVING "   CONSTANT HEAD" ON UNIT   9 AT TIME STEP297, STRESS PERIOD   1
 UBDSV1 SAVING "FLOW RIGHT FACE " ON UNIT   9 AT TIME STEP297, STRESS PERIOD   1
 UBDSV1 SAVING "FLOW FRONT FACE " ON UNIT   9 AT TIME STEP297, STRESS PERIOD   1
 UBDSV4 SAVING "   RIVER LEAKAGE" ON UNIT   9 AT TIME STEP297, STRESS PERIOD   1
 UBDSV3 SAVING "        RECHARGE" ON UNIT   9 AT TIME STEP297, STRESS PERIOD   1

 HEAD WILL BE SAVED ON UNIT 5037 AT END OF TIME STEP  297, STRESS PERIOD    1

 DRAWDOWN WILL BE SAVED ON UNIT   38 AT END OF TIME STEP  297, STRESS PERIOD    1
1
  VOLUMETRIC BUDGET FOR ENTIRE MODEL AT END OF TIME STEP  297, STRESS PERIOD   1
  ------------------------------------------------------------------------------

     CUMULATIVE VOLUMES      L**3       RATES FOR THIS TIME STEP      L**3/T
     ------------------                 ------------------------

           IN:                                      IN:
           ---                                      ---
             STORAGE =    11749593.0000               STORAGE =      111193.4844
       CONSTANT HEAD =           0.0000         CONSTANT HEAD =           0.0000
       RIVER LEAKAGE =     1772103.0000         RIVER LEAKAGE =        1959.9301
            RECHARGE =    10154768.0000              RECHARGE =      100423.6719

            TOTAL IN =    23676464.0000              TOTAL IN =      213577.0938

          OUT:                                     OUT:
          ----                                     ----
             STORAGE =     9522372.0000               STORAGE =       92585.8906
       CONSTANT HEAD =           0.0000         CONSTANT HEAD =           0.0000
       RIVER LEAKAGE =    14135450.0000         RIVER LEAKAGE =      120990.1953
            RECHARGE =           0.0000              RECHARGE =           0.0000

           TOTAL OUT =    23657822.0000             TOTAL OUT =      213576.0938

            IN - OUT =       18642.0000              IN - OUT =           1.0000

 PERCENT DISCREPANCY =           0.08     PERCENT DISCREPANCY =           0.00






         TIME SUMMARY AT END OF TIME STEP  297 IN STRESS PERIOD    1
                    SECONDS     MINUTES      HOURS       DAYS        YEARS
                    -----------------------------------------------------------
   TIME STEP LENGTH  86400.      1440.0      24.000      1.0000     2.73785E-03
 STRESS PERIOD TIME 2.56608E+07 4.27680E+05  7128.0      297.00     0.81314    
         TOTAL TIME 2.56608E+07 4.27680E+05  7128.0      297.00     0.81314    
1
 
 SOLVING FOR HEAD 
                                                   Max.-Head-Change                        Max.-Flux-Residual
  Residual-Control   Outer-Iter.   Inner-Iter.     Column Row Layer    Max.-Head-Change    Column Row Layer    Max.-Flux-Residual            L2-New               L2-Old           Solver-Max-Delh
          0                 1           2            11    6     1      -0.1226023410E+04      15    2    1       0.2874226180E+04      0.1473558669E+05      0.5397722595E+01     -0.1226023410E+04
          0                 2           2            11    6     1       0.1058774156E+03      16    4    1       0.1175278538E+04      0.1883878985E+04      0.1473558669E+05      0.1058774156E+03
          0                 3           2            11    6     1       0.5293923751E+01      16    4    1      -0.1216537812E+03      0.1438534084E+03      0.1883878985E+04      0.5293923751E+01
          0                 4           2            11    6     1       0.2646458999E+00      16    4    1      -0.6082672224E+01      0.7194342963E+01      0.1438534084E+03      0.2646458999E+00
          0                 5           2            11    6     1       0.1322713460E-01      16    4    1      -0.3040719429E+00      0.3998378773E+00      0.7194342963E+01      0.1322713460E-01

    ------------------------------------------------
       NWT REQUIRED            5 OUTER ITERATIONS 
       AND A TOTAL OF         10 INNER ITERATIONS.
    ------------------------------------------------

 OUTPUT CONTROL FOR STRESS PERIOD    1   TIME STEP  298
    SAVE HEAD FOR ALL LAYERS
    SAVE DRAWDOWN FOR ALL LAYERS
    SAVE BUDGET
    PRINT BUDGET
 UBDSV1 SAVING "         STORAGE" ON UNIT   9 AT TIME STEP298, STRESS PERIOD   1
 UBDSV2 SAVING "   CONSTANT HEAD" ON UNIT   9 AT TIME STEP298, STRESS PERIOD   1
 UBDSV1 SAVING "FLOW RIGHT FACE " ON UNIT   9 AT TIME STEP298, STRESS PERIOD   1
 UBDSV1 SAVING "FLOW FRONT FACE " ON UNIT   9 AT TIME STEP298, STRESS PERIOD   1
 UBDSV4 SAVING "   RIVER LEAKAGE" ON UNIT   9 AT TIME STEP298, STRESS PERIOD   1
 UBDSV3 SAVING "        RECHARGE" ON UNIT   9 AT TIME STEP298, STRESS PERIOD   1

 HEAD WILL BE SAVED ON UNIT 5037 AT END OF TIME STEP  298, STRESS PERIOD    1

 DRAWDOWN WILL BE SAVED ON UNIT   38 AT END OF TIME STEP  298, STRESS PERIOD    1
1
  VOLUMETRIC BUDGET FOR ENTIRE MODEL AT END OF TIME STEP  298, STRESS PERIOD   1
  ------------------------------------------------------------------------------

     CUMULATIVE VOLUMES      L**3       RATES FOR THIS TIME STEP      L**3/T
     ------------------                 ------------------------

           IN:                                      IN:
           ---                                      ---
             STORAGE =    11858456.0000               STORAGE =      108863.3203
       CONSTANT HEAD =           0.0000         CONSTANT HEAD =           0.0000
       RIVER LEAKAGE =     1774112.5000         RIVER LEAKAGE =        2009.5369
            RECHARGE =    10214664.0000              RECHARGE =       59895.7734

            TOTAL IN =    23847232.0000              TOTAL IN =      170768.6250

          OUT:                                     OUT:
          ----                                     ----
             STORAGE =     9594263.0000               STORAGE =       71890.9922
       CONSTANT HEAD =           0.0000         CONSTANT HEAD =           0.0000
       RIVER LEAKAGE =    14234327.0000         RIVER LEAKAGE =       98877.4141
            RECHARGE =           0.0000              RECHARGE =           0.0000

           TOTAL OUT =    23828590.0000             TOTAL OUT =      170768.4062

            IN - OUT =       18642.0000              IN - OUT =           0.2188

 PERCENT DISCREPANCY =           0.08     PERCENT DISCREPANCY =           0.00






         TIME SUMMARY AT END OF TIME STEP  298 IN STRESS PERIOD    1
                    SECONDS     MINUTES      HOURS       DAYS        YEARS
                    -----------------------------------------------------------
   TIME STEP LENGTH  86400.      1440.0      24.000      1.0000     2.73785E-03
 STRESS PERIOD TIME 2.57472E+07 4.29120E+05  7152.0      298.00     0.81588    
         TOTAL TIME 2.57472E+07 4.29120E+05  7152.0      298.00     0.81588    
1
 
 SOLVING FOR HEAD 
                                                   Max.-Head-Change                        Max.-Flux-Residual
  Residual-Control   Outer-Iter.   Inner-Iter.     Column Row Layer    Max.-Head-Change    Column Row Layer    Max.-Flux-Residual            L2-New               L2-Old           Solver-Max-Delh
          0                 1           2            11    6     1      -0.9421962387E+03      15    2    1       0.2778138177E+04      0.1191785304E+05      0.3998378773E+00     -0.9421962387E+03
          0                 2           2            11    6     1       0.8137149195E+02      15    2    1      -0.2787138008E+03      0.1208865667E+04      0.1191785304E+05      0.8137149195E+02
          0                 3           2            11    6     1       0.4068615363E+01      15    2    1      -0.1394243286E+02      0.6079534096E+02      0.1208865667E+04      0.4068615363E+01
          0                 4           2            11    6     1       0.2033921199E+00      15   12    1      -0.2472477254E+01      0.3915765019E+01      0.6079534096E+02      0.2033921199E+00
          0                 5           2            11    6     1       0.1016564000E-01      15   12    1      -0.2381351126E+01      0.2386183840E+01      0.3915765019E+01      0.1016564000E-01

    ------------------------------------------------
       NWT REQUIRED            5 OUTER ITERATIONS 
       AND A TOTAL OF         10 INNER ITERATIONS.
    ------------------------------------------------

 OUTPUT CONTROL FOR STRESS PERIOD    1   TIME STEP  299
    SAVE HEAD FOR ALL LAYERS
    SAVE DRAWDOWN FOR ALL LAYERS
    SAVE BUDGET
    PRINT BUDGET
 UBDSV1 SAVING "         STORAGE" ON UNIT   9 AT TIME STEP299, STRESS PERIOD   1
 UBDSV2 SAVING "   CONSTANT HEAD" ON UNIT   9 AT TIME STEP299, STRESS PERIOD   1
 UBDSV1 SAVING "FLOW RIGHT FACE " ON UNIT   9 AT TIME STEP299, STRESS PERIOD   1
 UBDSV1 SAVING "FLOW FRONT FACE " ON UNIT   9 AT TIME STEP299, STRESS PERIOD   1
 UBDSV4 SAVING "   RIVER LEAKAGE" ON UNIT   9 AT TIME STEP299, STRESS PERIOD   1
 UBDSV3 SAVING "        RECHARGE" ON UNIT   9 AT TIME STEP299, STRESS PERIOD   1

 HEAD WILL BE SAVED ON UNIT 5037 AT END OF TIME STEP  299, STRESS PERIOD    1

 DRAWDOWN WILL BE SAVED ON UNIT   38 AT END OF TIME STEP  299, STRESS PERIOD    1
1
  VOLUMETRIC BUDGET FOR ENTIRE MODEL AT END OF TIME STEP  299, STRESS PERIOD   1
  ------------------------------------------------------------------------------

     CUMULATIVE VOLUMES      L**3       RATES FOR THIS TIME STEP      L**3/T
     ------------------                 ------------------------

           IN:                                      IN:
           ---                                      ---
             STORAGE =    11952774.0000               STORAGE =       94317.8672
       CONSTANT HEAD =           0.0000         CONSTANT HEAD =           0.0000
       RIVER LEAKAGE =     1777619.8750         RIVER LEAKAGE =        3507.3899
            RECHARGE =    10252404.0000              RECHARGE =       37740.4375

            TOTAL IN =    23982798.0000              TOTAL IN =      135565.6875

          OUT:                                     OUT:
          ----                                     ----
             STORAGE =     9653434.0000               STORAGE =       59170.9336
       CONSTANT HEAD =           0.0000         CONSTANT HEAD =           0.0000
       RIVER LEAKAGE =    14310724.0000         RIVER LEAKAGE =       76397.0156
            RECHARGE =           0.0000              RECHARGE =           0.0000

           TOTAL OUT =    23964158.0000             TOTAL OUT =      135567.9531

            IN - OUT =       18640.0000              IN - OUT =          -2.2656

 PERCENT DISCREPANCY =           0.08     PERCENT DISCREPANCY =          -0.00






         TIME SUMMARY AT END OF TIME STEP  299 IN STRESS PERIOD    1
                    SECONDS     MINUTES      HOURS       DAYS        YEARS
                    -----------------------------------------------------------
   TIME STEP LENGTH  86400.      1440.0      24.000      1.0000     2.73785E-03
 STRESS PERIOD TIME 2.58336E+07 4.30560E+05  7176.0      299.00     0.81862    
         TOTAL TIME 2.58336E+07 4.30560E+05  7176.0      299.00     0.81862    
1
 
 SOLVING FOR HEAD 
                                                   Max.-Head-Change                        Max.-Flux-Residual
  Residual-Control   Outer-Iter.   Inner-Iter.     Column Row Layer    Max.-Head-Change    Column Row Layer    Max.-Flux-Residual            L2-New               L2-Old           Solver-Max-Delh
          0                 1           2            11    6     1      -0.7079737859E+03      15    2    1       0.2666522715E+04      0.1118586429E+05      0.2386183840E+01     -0.7079737859E+03
          0                 2           2            11    6     1       0.6114319308E+02      15    2    1      -0.2674714894E+03      0.1128913764E+04      0.1118586429E+05      0.6114319308E+02
          0                 3           2            11    6     1       0.3057190286E+01      15    2    1      -0.1337971030E+02      0.5652738799E+02      0.1128913764E+04      0.3057190286E+01
          0                 4           2            11    6     1       0.1528304737E+00      15   12    1      -0.3089942911E+01      0.4184162282E+01      0.5652738799E+02      0.1528304737E+00
          0                 5           2            11    6     1       0.7638543605E-02      15   12    1       0.3089744143E+00      0.3396114033E+00      0.4184162282E+01      0.7638543605E-02

    ------------------------------------------------
       NWT REQUIRED            5 OUTER ITERATIONS 
       AND A TOTAL OF         10 INNER ITERATIONS.
    ------------------------------------------------

 OUTPUT CONTROL FOR STRESS PERIOD    1   TIME STEP  300
    SAVE HEAD FOR ALL LAYERS
    SAVE DRAWDOWN FOR ALL LAYERS
    SAVE BUDGET
    PRINT BUDGET
 UBDSV1 SAVING "         STORAGE" ON UNIT   9 AT TIME STEP300, STRESS PERIOD   1
 UBDSV2 SAVING "   CONSTANT HEAD" ON UNIT   9 AT TIME STEP300, STRESS PERIOD   1
 UBDSV1 SAVING "FLOW RIGHT FACE " ON UNIT   9 AT TIME STEP300, STRESS PERIOD   1
 UBDSV1 SAVING "FLOW FRONT FACE " ON UNIT   9 AT TIME STEP300, STRESS PERIOD   1
 UBDSV4 SAVING "   RIVER LEAKAGE" ON UNIT   9 AT TIME STEP300, STRESS PERIOD   1
 UBDSV3 SAVING "        RECHARGE" ON UNIT   9 AT TIME STEP300, STRESS PERIOD   1

 HEAD WILL BE SAVED ON UNIT 5037 AT END OF TIME STEP  300, STRESS PERIOD    1

 DRAWDOWN WILL BE SAVED ON UNIT   38 AT END OF TIME STEP  300, STRESS PERIOD    1
1
  VOLUMETRIC BUDGET FOR ENTIRE MODEL AT END OF TIME STEP  300, STRESS PERIOD   1
  ------------------------------------------------------------------------------

     CUMULATIVE VOLUMES      L**3       RATES FOR THIS TIME STEP      L**3/T
     ------------------                 ------------------------

           IN:                                      IN:
           ---                                      ---
             STORAGE =    12047598.0000               STORAGE =       94823.9609
       CONSTANT HEAD =           0.0000         CONSTANT HEAD =           0.0000
       RIVER LEAKAGE =     1780920.6250         RIVER LEAKAGE =        3300.7417
            RECHARGE =    10277778.0000              RECHARGE =       25374.4531

            TOTAL IN =    24106296.0000              TOTAL IN =      123499.1562

          OUT:                                     OUT:
          ----                                     ----
             STORAGE =     9704028.0000               STORAGE =       50594.3047
       CONSTANT HEAD =           0.0000         CONSTANT HEAD =           0.0000
       RIVER LEAKAGE =    14383629.0000         RIVER LEAKAGE =       72904.7891
            RECHARGE =           0.0000              RECHARGE =           0.0000

           TOTAL OUT =    24087656.0000             TOTAL OUT =      123499.0938

            IN - OUT =       18640.0000              IN - OUT =       6.2500E-02

 PERCENT DISCREPANCY =           0.08     PERCENT DISCREPANCY =           0.00






         TIME SUMMARY AT END OF TIME STEP  300 IN STRESS PERIOD    1
                    SECONDS     MINUTES      HOURS       DAYS        YEARS
                    -----------------------------------------------------------
   TIME STEP LENGTH  86400.      1440.0      24.000      1.0000     2.73785E-03
 STRESS PERIOD TIME 2.59200E+07 4.32000E+05  7200.0      300.00     0.82136    
         TOTAL TIME 2.59200E+07 4.32000E+05  7200.0      300.00     0.82136    
1
 
 SOLVING FOR HEAD 
                                                   Max.-Head-Change                        Max.-Flux-Residual
  Residual-Control   Outer-Iter.   Inner-Iter.     Column Row Layer    Max.-Head-Change    Column Row Layer    Max.-Flux-Residual            L2-New               L2-Old           Solver-Max-Delh
          0                 1           2            11    6     1      -0.5244268198E+03      15    2    1       0.2546792625E+04      0.9360220076E+04      0.3396114033E+00     -0.5244268198E+03
          0                 2           2            11    6     1       0.4529140897E+02      15    2    1      -0.2554196830E+03      0.9402983227E+03      0.9360220076E+04      0.4529140897E+02
          0                 3           2            11    6     1       0.2264593139E+01      15    2    1      -0.1277652796E+02      0.4851766216E+02      0.9402983227E+03      0.2264593139E+01
          0                 4           2            11    6     1       0.1132081453E+00      15    2    1      -0.6387121986E+00      0.2432856854E+01      0.4851766216E+02      0.1132081453E+00
          0                 5           2            11    6     1       0.5658199791E-02      15    2    1      -0.3192285470E-01      0.1238989379E+00      0.2432856854E+01      0.5658199791E-02

    ------------------------------------------------
       NWT REQUIRED            5 OUTER ITERATIONS 
       AND A TOTAL OF         10 INNER ITERATIONS.
    ------------------------------------------------

 OUTPUT CONTROL FOR STRESS PERIOD    1   TIME STEP  301
    SAVE HEAD FOR ALL LAYERS
    SAVE DRAWDOWN FOR ALL LAYERS
    SAVE BUDGET
    PRINT BUDGET
 UBDSV1 SAVING "         STORAGE" ON UNIT   9 AT TIME STEP301, STRESS PERIOD   1
 UBDSV2 SAVING "   CONSTANT HEAD" ON UNIT   9 AT TIME STEP301, STRESS PERIOD   1
 UBDSV1 SAVING "FLOW RIGHT FACE " ON UNIT   9 AT TIME STEP301, STRESS PERIOD   1
 UBDSV1 SAVING "FLOW FRONT FACE " ON UNIT   9 AT TIME STEP301, STRESS PERIOD   1
 UBDSV4 SAVING "   RIVER LEAKAGE" ON UNIT   9 AT TIME STEP301, STRESS PERIOD   1
 UBDSV3 SAVING "        RECHARGE" ON UNIT   9 AT TIME STEP301, STRESS PERIOD   1

 HEAD WILL BE SAVED ON UNIT 5037 AT END OF TIME STEP  301, STRESS PERIOD    1

 DRAWDOWN WILL BE SAVED ON UNIT   38 AT END OF TIME STEP  301, STRESS PERIOD    1
1
  VOLUMETRIC BUDGET FOR ENTIRE MODEL AT END OF TIME STEP  301, STRESS PERIOD   1
  ------------------------------------------------------------------------------

     CUMULATIVE VOLUMES      L**3       RATES FOR THIS TIME STEP      L**3/T
     ------------------                 ------------------------

           IN:                                      IN:
           ---                                      ---
             STORAGE =    12129009.0000               STORAGE =       81411.0391
       CONSTANT HEAD =           0.0000         CONSTANT HEAD =           0.0000
       RIVER LEAKAGE =     1785523.8750         RIVER LEAKAGE =        4603.2930
            RECHARGE =    10296041.0000              RECHARGE =       18263.3242

            TOTAL IN =    24210574.0000              TOTAL IN =      104277.6562

          OUT:                                     OUT:
          ----                                     ----
             STORAGE =     9748025.0000               STORAGE =       43996.6797
       CONSTANT HEAD =           0.0000         CONSTANT HEAD =           0.0000
       RIVER LEAKAGE =    14443910.0000         RIVER LEAKAGE =       60280.9492
            RECHARGE =           0.0000              RECHARGE =           0.0000

           TOTAL OUT =    24191936.0000             TOTAL OUT =      104277.6250

            IN - OUT =       18638.0000              IN - OUT =       3.1250E-02

 PERCENT DISCREPANCY =           0.08     PERCENT DISCREPANCY =           0.00






         TIME SUMMARY AT END OF TIME STEP  301 IN STRESS PERIOD    1
                    SECONDS     MINUTES      HOURS       DAYS        YEARS
                    -----------------------------------------------------------
   TIME STEP LENGTH  86400.      1440.0      24.000      1.0000     2.73785E-03
 STRESS PERIOD TIME 2.60064E+07 4.33440E+05  7224.0      301.00     0.82409    
         TOTAL TIME 2.60064E+07 4.33440E+05  7224.0      301.00     0.82409    
1
 
 SOLVING FOR HEAD 
                                                   Max.-Head-Change                        Max.-Flux-Residual
  Residual-Control   Outer-Iter.   Inner-Iter.     Column Row Layer    Max.-Head-Change    Column Row Layer    Max.-Flux-Residual            L2-New               L2-Old           Solver-Max-Delh
          0                 1           2            11    6     1      -0.3849044105E+03      15    2    1       0.2423408961E+04      0.8402616291E+04      0.1238989379E+00     -0.3849044105E+03
          0                 2           2            11    6     1       0.3324174280E+02      15    2    1      -0.2430063499E+03      0.8661249499E+03      0.8402616291E+04      0.3324174280E+02
          0                 3           2            11    6     1       0.1662103793E+01      36    7    1      -0.1392782799E+02      0.4509048093E+02      0.8661249499E+03      0.1662103793E+01
          0                 4           2            11    6     1       0.8308940110E-01      36    7    1      -0.6963915678E+00      0.2254125424E+01      0.4509048093E+02      0.8308940110E-01

    ------------------------------------------------
       NWT REQUIRED            4 OUTER ITERATIONS 
       AND A TOTAL OF          8 INNER ITERATIONS.
    ------------------------------------------------

 OUTPUT CONTROL FOR STRESS PERIOD    1   TIME STEP  302
    SAVE HEAD FOR ALL LAYERS
    SAVE DRAWDOWN FOR ALL LAYERS
    SAVE BUDGET
    PRINT BUDGET
 UBDSV1 SAVING "         STORAGE" ON UNIT   9 AT TIME STEP302, STRESS PERIOD   1
 UBDSV2 SAVING "   CONSTANT HEAD" ON UNIT   9 AT TIME STEP302, STRESS PERIOD   1
 UBDSV1 SAVING "FLOW RIGHT FACE " ON UNIT   9 AT TIME STEP302, STRESS PERIOD   1
 UBDSV1 SAVING "FLOW FRONT FACE " ON UNIT   9 AT TIME STEP302, STRESS PERIOD   1
 UBDSV4 SAVING "   RIVER LEAKAGE" ON UNIT   9 AT TIME STEP302, STRESS PERIOD   1
 UBDSV3 SAVING "        RECHARGE" ON UNIT   9 AT TIME STEP302, STRESS PERIOD   1

 HEAD WILL BE SAVED ON UNIT 5037 AT END OF TIME STEP  302, STRESS PERIOD    1

 DRAWDOWN WILL BE SAVED ON UNIT   38 AT END OF TIME STEP  302, STRESS PERIOD    1
1
  VOLUMETRIC BUDGET FOR ENTIRE MODEL AT END OF TIME STEP  302, STRESS PERIOD   1
  ------------------------------------------------------------------------------

     CUMULATIVE VOLUMES      L**3       RATES FOR THIS TIME STEP      L**3/T
     ------------------                 ------------------------

           IN:                                      IN:
           ---                                      ---
             STORAGE =    12203073.0000               STORAGE =       74063.5469
       CONSTANT HEAD =           0.0000         CONSTANT HEAD =           0.0000
       RIVER LEAKAGE =     1790710.5000         RIVER LEAKAGE =        5186.6787
            RECHARGE =    10310048.0000              RECHARGE =       14006.5137

            TOTAL IN =    24303832.0000              TOTAL IN =       93256.7422

          OUT:                                     OUT:
          ----                                     ----
             STORAGE =     9787003.0000               STORAGE =       38977.5312
       CONSTANT HEAD =           0.0000         CONSTANT HEAD =           0.0000
       RIVER LEAKAGE =    14498189.0000         RIVER LEAKAGE =       54278.7070
            RECHARGE =           0.0000              RECHARGE =           0.0000

           TOTAL OUT =    24285192.0000             TOTAL OUT =       93256.2344

            IN - OUT =       18640.0000              IN - OUT =           0.5078

 PERCENT DISCREPANCY =           0.08     PERCENT DISCREPANCY =           0.00






         TIME SUMMARY AT END OF TIME STEP  302 IN STRESS PERIOD    1
                    SECONDS     MINUTES      HOURS       DAYS        YEARS
                    -----------------------------------------------------------
   TIME STEP LENGTH  86400.      1440.0      24.000      1.0000     2.73785E-03
 STRESS PERIOD TIME 2.60928E+07 4.34880E+05  7248.0      302.00     0.82683    
         TOTAL TIME 2.60928E+07 4.34880E+05  7248.0      302.00     0.82683    
1
 
 SOLVING FOR HEAD 
                                                   Max.-Head-Change                        Max.-Flux-Residual
  Residual-Control   Outer-Iter.   Inner-Iter.     Column Row Layer    Max.-Head-Change    Column Row Layer    Max.-Flux-Residual            L2-New               L2-Old           Solver-Max-Delh
          0                 1           2            11    6     1      -0.2808268220E+03      15    2    1       0.2299162680E+04      0.7654572975E+04      0.2254125424E+01     -0.2808268220E+03
          1                 1           0            11    6     1      -0.1965787720E+03      29    9    1       0.1276533966E+05      0.1279190925E+05      0.7654572975E+04     -0.2808268220E+03
          0                 2           2            11    6     1      -0.6459017018E+02      29    9    1       0.8089143390E+04      0.8283244201E+04      0.1279190925E+05     -0.6459017018E+02
          0                 3           2            11    6     1       0.5578242192E+01      29    9    1       0.3969445788E+03      0.4353326334E+03      0.8283244201E+04      0.5578242192E+01
          0                 4           2            11    6     1       0.2789149042E+00      29    9    1       0.1982523579E+02      0.2174665810E+02      0.4353326334E+03      0.2789149042E+00
          0                 5           2            11    6     1       0.1394309576E-01      29    9    1       0.9908198552E+00      0.1086893398E+01      0.2174665810E+02      0.1394309576E-01

    ------------------------------------------------
       NWT REQUIRED            5 OUTER ITERATIONS 
       AND A TOTAL OF         10 INNER ITERATIONS.
    ------------------------------------------------

 OUTPUT CONTROL FOR STRESS PERIOD    1   TIME STEP  303
    SAVE HEAD FOR ALL LAYERS
    SAVE DRAWDOWN FOR ALL LAYERS
    SAVE BUDGET
    PRINT BUDGET
 UBDSV1 SAVING "         STORAGE" ON UNIT   9 AT TIME STEP303, STRESS PERIOD   1
 UBDSV2 SAVING "   CONSTANT HEAD" ON UNIT   9 AT TIME STEP303, STRESS PERIOD   1
 UBDSV1 SAVING "FLOW RIGHT FACE " ON UNIT   9 AT TIME STEP303, STRESS PERIOD   1
 UBDSV1 SAVING "FLOW FRONT FACE " ON UNIT   9 AT TIME STEP303, STRESS PERIOD   1
 UBDSV4 SAVING "   RIVER LEAKAGE" ON UNIT   9 AT TIME STEP303, STRESS PERIOD   1
 UBDSV3 SAVING "        RECHARGE" ON UNIT   9 AT TIME STEP303, STRESS PERIOD   1

 HEAD WILL BE SAVED ON UNIT 5037 AT END OF TIME STEP  303, STRESS PERIOD    1

 DRAWDOWN WILL BE SAVED ON UNIT   38 AT END OF TIME STEP  303, STRESS PERIOD    1
1
  VOLUMETRIC BUDGET FOR ENTIRE MODEL AT END OF TIME STEP  303, STRESS PERIOD   1
  ------------------------------------------------------------------------------

     CUMULATIVE VOLUMES      L**3       RATES FOR THIS TIME STEP      L**3/T
     ------------------                 ------------------------

           IN:                                      IN:
           ---                                      ---
             STORAGE =    12271635.0000               STORAGE =       68561.7969
       CONSTANT HEAD =           0.0000         CONSTANT HEAD =           0.0000
       RIVER LEAKAGE =     1796195.7500         RIVER LEAKAGE =        5485.3022
            RECHARGE =    10321375.0000              RECHARGE =       11327.3750

            TOTAL IN =    24389206.0000              TOTAL IN =       85374.4766

          OUT:                                     OUT:
          ----                                     ----
             STORAGE =     9821782.0000               STORAGE =       34779.2891
       CONSTANT HEAD =           0.0000         CONSTANT HEAD =           0.0000
       RIVER LEAKAGE =    14548784.0000         RIVER LEAKAGE =       50595.0273
            RECHARGE =           0.0000              RECHARGE =           0.0000

           TOTAL OUT =    24370566.0000             TOTAL OUT =       85374.3125

            IN - OUT =       18640.0000              IN - OUT =           0.1641

 PERCENT DISCREPANCY =           0.08     PERCENT DISCREPANCY =           0.00






         TIME SUMMARY AT END OF TIME STEP  303 IN STRESS PERIOD    1
                    SECONDS     MINUTES      HOURS       DAYS        YEARS
                    -----------------------------------------------------------
   TIME STEP LENGTH  86400.      1440.0      24.000      1.0000     2.73785E-03
 STRESS PERIOD TIME 2.61792E+07 4.36320E+05  7272.0      303.00     0.82957    
         TOTAL TIME 2.61792E+07 4.36320E+05  7272.0      303.00     0.82957    
1
 
 SOLVING FOR HEAD 
                                                   Max.-Head-Change                        Max.-Flux-Residual
  Residual-Control   Outer-Iter.   Inner-Iter.     Column Row Layer    Max.-Head-Change    Column Row Layer    Max.-Flux-Residual            L2-New               L2-Old           Solver-Max-Delh
          0                 1           2            11    6     1      -0.2041878357E+03      15    2    1       0.2176013396E+04      0.7013665752E+04      0.1086893398E+01     -0.2041878357E+03
          0                 2           2            11    6     1       0.1763440468E+02      22   11    1       0.9682874370E+03      0.1195815965E+04      0.7013665752E+04      0.1763440468E+02
          0                 3           2            11    6     1       0.8817290438E+00      26   21    1       0.4337893108E+03      0.4378821425E+03      0.1195815965E+04      0.8817290438E+00
          0                 4           2            11    6     1       0.4407807653E-01      26   21    1       0.7704854182E+02      0.7710698649E+02      0.4378821425E+03      0.4407807653E-01

    ------------------------------------------------
       NWT REQUIRED            4 OUTER ITERATIONS 
       AND A TOTAL OF          8 INNER ITERATIONS.
    ------------------------------------------------

 OUTPUT CONTROL FOR STRESS PERIOD    1   TIME STEP  304
    SAVE HEAD FOR ALL LAYERS
    SAVE DRAWDOWN FOR ALL LAYERS
    SAVE BUDGET
    PRINT BUDGET
 UBDSV1 SAVING "         STORAGE" ON UNIT   9 AT TIME STEP304, STRESS PERIOD   1
 UBDSV2 SAVING "   CONSTANT HEAD" ON UNIT   9 AT TIME STEP304, STRESS PERIOD   1
 UBDSV1 SAVING "FLOW RIGHT FACE " ON UNIT   9 AT TIME STEP304, STRESS PERIOD   1
 UBDSV1 SAVING "FLOW FRONT FACE " ON UNIT   9 AT TIME STEP304, STRESS PERIOD   1
 UBDSV4 SAVING "   RIVER LEAKAGE" ON UNIT   9 AT TIME STEP304, STRESS PERIOD   1
 UBDSV3 SAVING "        RECHARGE" ON UNIT   9 AT TIME STEP304, STRESS PERIOD   1

 HEAD WILL BE SAVED ON UNIT 5037 AT END OF TIME STEP  304, STRESS PERIOD    1

 DRAWDOWN WILL BE SAVED ON UNIT   38 AT END OF TIME STEP  304, STRESS PERIOD    1
1
  VOLUMETRIC BUDGET FOR ENTIRE MODEL AT END OF TIME STEP  304, STRESS PERIOD   1
  ------------------------------------------------------------------------------

     CUMULATIVE VOLUMES      L**3       RATES FOR THIS TIME STEP      L**3/T
     ------------------                 ------------------------

           IN:                                      IN:
           ---                                      ---
             STORAGE =    12335697.0000               STORAGE =       64061.9531
       CONSTANT HEAD =           0.0000         CONSTANT HEAD =           0.0000
       RIVER LEAKAGE =     1801856.8750         RIVER LEAKAGE =        5661.1782
            RECHARGE =    10330917.0000              RECHARGE =        9541.8760

            TOTAL IN =    24468472.0000              TOTAL IN =       79265.0078

          OUT:                                     OUT:
          ----                                     ----
             STORAGE =     9853071.0000               STORAGE =       31289.4062
       CONSTANT HEAD =           0.0000         CONSTANT HEAD =           0.0000
       RIVER LEAKAGE =    14596746.0000         RIVER LEAKAGE =       47961.5039
            RECHARGE =           0.0000              RECHARGE =           0.0000

           TOTAL OUT =    24449816.0000             TOTAL OUT =       79250.9062

            IN - OUT =       18656.0000              IN - OUT =          14.1016

 PERCENT DISCREPANCY =           0.08     PERCENT DISCREPANCY =           0.02






         TIME SUMMARY AT END OF TIME STEP  304 IN STRESS PERIOD    1
                    SECONDS     MINUTES      HOURS       DAYS        YEARS
                    -----------------------------------------------------------
   TIME STEP LENGTH  86400.      1440.0      24.000      1.0000     2.73785E-03
 STRESS PERIOD TIME 2.62656E+07 4.37760E+05  7296.0      304.00     0.83231    
         TOTAL TIME 2.62656E+07 4.37760E+05  7296.0      304.00     0.83231    
1
 
 SOLVING FOR HEAD 
                                                   Max.-Head-Change                        Max.-Flux-Residual
  Residual-Control   Outer-Iter.   Inner-Iter.     Column Row Layer    Max.-Head-Change    Column Row Layer    Max.-Flux-Residual            L2-New               L2-Old           Solver-Max-Delh
          0                 1           2            11    6     1      -0.1481861816E+03      15    2    1       0.2055279047E+04      0.6639825472E+04      0.7710698649E+02     -0.1481861816E+03
          0                 2           2            11    6     1       0.1279789764E+02      18    6    1       0.7232079154E+04      0.7268219824E+04      0.6639825472E+04      0.1279789764E+02
          0                 3           2            11    6     1       0.6399012933E+00      18    6    1       0.3555887591E+03      0.3584072928E+03      0.7268219824E+04      0.6399012933E+00
          0                 4           2            11    6     1       0.3198898616E-01      18    6    1       0.1776138424E+02      0.1790242807E+02      0.3584072928E+03      0.3198898616E-01

    ------------------------------------------------
       NWT REQUIRED            4 OUTER ITERATIONS 
       AND A TOTAL OF          8 INNER ITERATIONS.
    ------------------------------------------------

 OUTPUT CONTROL FOR STRESS PERIOD    1   TIME STEP  305
    SAVE HEAD FOR ALL LAYERS
    SAVE DRAWDOWN FOR ALL LAYERS
    SAVE BUDGET
    PRINT BUDGET
 UBDSV1 SAVING "         STORAGE" ON UNIT   9 AT TIME STEP305, STRESS PERIOD   1
 UBDSV2 SAVING "   CONSTANT HEAD" ON UNIT   9 AT TIME STEP305, STRESS PERIOD   1
 UBDSV1 SAVING "FLOW RIGHT FACE " ON UNIT   9 AT TIME STEP305, STRESS PERIOD   1
 UBDSV1 SAVING "FLOW FRONT FACE " ON UNIT   9 AT TIME STEP305, STRESS PERIOD   1
 UBDSV4 SAVING "   RIVER LEAKAGE" ON UNIT   9 AT TIME STEP305, STRESS PERIOD   1
 UBDSV3 SAVING "        RECHARGE" ON UNIT   9 AT TIME STEP305, STRESS PERIOD   1

 HEAD WILL BE SAVED ON UNIT 5037 AT END OF TIME STEP  305, STRESS PERIOD    1

 DRAWDOWN WILL BE SAVED ON UNIT   38 AT END OF TIME STEP  305, STRESS PERIOD    1
1
  VOLUMETRIC BUDGET FOR ENTIRE MODEL AT END OF TIME STEP  305, STRESS PERIOD   1
  ------------------------------------------------------------------------------

     CUMULATIVE VOLUMES      L**3       RATES FOR THIS TIME STEP      L**3/T
     ------------------                 ------------------------

           IN:                                      IN:
           ---                                      ---
             STORAGE =    12397277.0000               STORAGE =       61580.0000
       CONSTANT HEAD =           0.0000         CONSTANT HEAD =           0.0000
       RIVER LEAKAGE =     1807389.1250         RIVER LEAKAGE =        5532.3101
            RECHARGE =    10339196.0000              RECHARGE =        8279.4072

            TOTAL IN =    24543862.0000              TOTAL IN =       75391.7188

          OUT:                                     OUT:
          ----                                     ----
             STORAGE =     9881383.0000               STORAGE =       28311.9805
       CONSTANT HEAD =           0.0000         CONSTANT HEAD =           0.0000
       RIVER LEAKAGE =    14643824.0000         RIVER LEAKAGE =       47078.3672
            RECHARGE =           0.0000              RECHARGE =           0.0000

           TOTAL OUT =    24525208.0000             TOTAL OUT =       75390.3438

            IN - OUT =       18654.0000              IN - OUT =           1.3750

 PERCENT DISCREPANCY =           0.08     PERCENT DISCREPANCY =           0.00






         TIME SUMMARY AT END OF TIME STEP  305 IN STRESS PERIOD    1
                    SECONDS     MINUTES      HOURS       DAYS        YEARS
                    -----------------------------------------------------------
   TIME STEP LENGTH  86400.      1440.0      24.000      1.0000     2.73785E-03
 STRESS PERIOD TIME 2.63520E+07 4.39200E+05  7320.0      305.00     0.83504    
         TOTAL TIME 2.63520E+07 4.39200E+05  7320.0      305.00     0.83504    
1
 
 SOLVING FOR HEAD 
                                                   Max.-Head-Change                        Max.-Flux-Residual
  Residual-Control   Outer-Iter.   Inner-Iter.     Column Row Layer    Max.-Head-Change    Column Row Layer    Max.-Flux-Residual            L2-New               L2-Old           Solver-Max-Delh
          0                 1           2            13    4     1      -0.1110587999E+03      15    2    1       0.1937884390E+04      0.5988692894E+04      0.1790242807E+02     -0.1110587999E+03
          0                 2           2            13    4     1       0.9591442185E+01      36   14    1       0.2952501679E+04      0.3014009985E+04      0.5988692894E+04      0.9591442185E+01
          0                 3           2            13    4     1       0.4795769144E+00      36   14    1       0.1467217407E+03      0.1498160687E+03      0.3014009985E+04      0.4795769144E+00
          0                 4           2            13    4     1       0.2397429016E-01      36   14    1       0.7332388310E+01      0.7487157791E+01      0.1498160687E+03      0.2397429016E-01

    ------------------------------------------------
       NWT REQUIRED            4 OUTER ITERATIONS 
       AND A TOTAL OF          8 INNER ITERATIONS.
    ------------------------------------------------

 OUTPUT CONTROL FOR STRESS PERIOD    1   TIME STEP  306
    SAVE HEAD FOR ALL LAYERS
    SAVE DRAWDOWN FOR ALL LAYERS
    SAVE BUDGET
    PRINT BUDGET
 UBDSV1 SAVING "         STORAGE" ON UNIT   9 AT TIME STEP306, STRESS PERIOD   1
 UBDSV2 SAVING "   CONSTANT HEAD" ON UNIT   9 AT TIME STEP306, STRESS PERIOD   1
 UBDSV1 SAVING "FLOW RIGHT FACE " ON UNIT   9 AT TIME STEP306, STRESS PERIOD   1
 UBDSV1 SAVING "FLOW FRONT FACE " ON UNIT   9 AT TIME STEP306, STRESS PERIOD   1
 UBDSV4 SAVING "   RIVER LEAKAGE" ON UNIT   9 AT TIME STEP306, STRESS PERIOD   1
 UBDSV3 SAVING "        RECHARGE" ON UNIT   9 AT TIME STEP306, STRESS PERIOD   1

 HEAD WILL BE SAVED ON UNIT 5037 AT END OF TIME STEP  306, STRESS PERIOD    1

 DRAWDOWN WILL BE SAVED ON UNIT   38 AT END OF TIME STEP  306, STRESS PERIOD    1
1
  VOLUMETRIC BUDGET FOR ENTIRE MODEL AT END OF TIME STEP  306, STRESS PERIOD   1
  ------------------------------------------------------------------------------

     CUMULATIVE VOLUMES      L**3       RATES FOR THIS TIME STEP      L**3/T
     ------------------                 ------------------------

           IN:                                      IN:
           ---                                      ---
             STORAGE =    12454322.0000               STORAGE =       57045.1602
       CONSTANT HEAD =           0.0000         CONSTANT HEAD =           0.0000
       RIVER LEAKAGE =     1813163.2500         RIVER LEAKAGE =        5774.1475
            RECHARGE =    10346532.0000              RECHARGE =        7335.9531

            TOTAL IN =    24614016.0000              TOTAL IN =       70155.2656

          OUT:                                     OUT:
          ----                                     ----
             STORAGE =     9907022.0000               STORAGE =       25639.3574
       CONSTANT HEAD =           0.0000         CONSTANT HEAD =           0.0000
       RIVER LEAKAGE =    14688339.0000         RIVER LEAKAGE =       44515.0273
            RECHARGE =           0.0000              RECHARGE =           0.0000

           TOTAL OUT =    24595360.0000             TOTAL OUT =       70154.3828

            IN - OUT =       18656.0000              IN - OUT =           0.8828

 PERCENT DISCREPANCY =           0.08     PERCENT DISCREPANCY =           0.00






         TIME SUMMARY AT END OF TIME STEP  306 IN STRESS PERIOD    1
                    SECONDS     MINUTES      HOURS       DAYS        YEARS
                    -----------------------------------------------------------
   TIME STEP LENGTH  86400.      1440.0      24.000      1.0000     2.73785E-03
 STRESS PERIOD TIME 2.64384E+07 4.40640E+05  7344.0      306.00     0.83778    
         TOTAL TIME 2.64384E+07 4.40640E+05  7344.0      306.00     0.83778    
1
 
 SOLVING FOR HEAD 
                                                   Max.-Head-Change                        Max.-Flux-Residual
  Residual-Control   Outer-Iter.   Inner-Iter.     Column Row Layer    Max.-Head-Change    Column Row Layer    Max.-Flux-Residual            L2-New               L2-Old           Solver-Max-Delh
          0                 1           2            13    4     1      -0.8434331595E+02      15    2    1       0.1824457122E+04      0.6509414600E+04      0.7487157791E+01     -0.8434331595E+02
          0                 2           2            13    4     1       0.7284195781E+01      25    7    1       0.3423993305E+04      0.3488716412E+04      0.6509414600E+04      0.7284195781E+01
          0                 3           2            13    4     1       0.3642134382E+00      25    7    1       0.1708692696E+03      0.1746044874E+03      0.3488716412E+04      0.3642134382E+00
          0                 4           2            13    4     1       0.1820721220E-01      25    7    1       0.8540928199E+01      0.8728491782E+01      0.1746044874E+03      0.1820721220E-01

    ------------------------------------------------
       NWT REQUIRED            4 OUTER ITERATIONS 
       AND A TOTAL OF          8 INNER ITERATIONS.
    ------------------------------------------------

 OUTPUT CONTROL FOR STRESS PERIOD    1   TIME STEP  307
    SAVE HEAD FOR ALL LAYERS
    SAVE DRAWDOWN FOR ALL LAYERS
    SAVE BUDGET
    PRINT BUDGET
 UBDSV1 SAVING "         STORAGE" ON UNIT   9 AT TIME STEP307, STRESS PERIOD   1
 UBDSV2 SAVING "   CONSTANT HEAD" ON UNIT   9 AT TIME STEP307, STRESS PERIOD   1
 UBDSV1 SAVING "FLOW RIGHT FACE " ON UNIT   9 AT TIME STEP307, STRESS PERIOD   1
 UBDSV1 SAVING "FLOW FRONT FACE " ON UNIT   9 AT TIME STEP307, STRESS PERIOD   1
 UBDSV4 SAVING "   RIVER LEAKAGE" ON UNIT   9 AT TIME STEP307, STRESS PERIOD   1
 UBDSV3 SAVING "        RECHARGE" ON UNIT   9 AT TIME STEP307, STRESS PERIOD   1

 HEAD WILL BE SAVED ON UNIT 5037 AT END OF TIME STEP  307, STRESS PERIOD    1

 DRAWDOWN WILL BE SAVED ON UNIT   38 AT END OF TIME STEP  307, STRESS PERIOD    1
1
  VOLUMETRIC BUDGET FOR ENTIRE MODEL AT END OF TIME STEP  307, STRESS PERIOD   1
  ------------------------------------------------------------------------------

     CUMULATIVE VOLUMES      L**3       RATES FOR THIS TIME STEP      L**3/T
     ------------------                 ------------------------

           IN:                                      IN:
           ---                                      ---
             STORAGE =    12517301.0000               STORAGE =       62979.2266
       CONSTANT HEAD =           0.0000         CONSTANT HEAD =           0.0000
       RIVER LEAKAGE =     1817509.3750         RIVER LEAKAGE =        4346.1587
            RECHARGE =    10353129.0000              RECHARGE =        6596.7300

            TOTAL IN =    24687940.0000              TOTAL IN =       73922.1094

          OUT:                                     OUT:
          ----                                     ----
             STORAGE =     9930398.0000               STORAGE =       23375.5723
       CONSTANT HEAD =           0.0000         CONSTANT HEAD =           0.0000
       RIVER LEAKAGE =    14738884.0000         RIVER LEAKAGE =       50545.2188
            RECHARGE =           0.0000              RECHARGE =           0.0000

           TOTAL OUT =    24669282.0000             TOTAL OUT =       73920.7891

            IN - OUT =       18658.0000              IN - OUT =           1.3203

 PERCENT DISCREPANCY =           0.08     PERCENT DISCREPANCY =           0.00






         TIME SUMMARY AT END OF TIME STEP  307 IN STRESS PERIOD    1
                    SECONDS     MINUTES      HOURS       DAYS        YEARS
                    -----------------------------------------------------------
   TIME STEP LENGTH  86400.      1440.0      24.000      1.0000     2.73785E-03
 STRESS PERIOD TIME 2.65248E+07 4.42080E+05  7368.0      307.00     0.84052    
         TOTAL TIME 2.65248E+07 4.42080E+05  7368.0      307.00     0.84052    
1
 
 SOLVING FOR HEAD 
                                                   Max.-Head-Change                        Max.-Flux-Residual
  Residual-Control   Outer-Iter.   Inner-Iter.     Column Row Layer    Max.-Head-Change    Column Row Layer    Max.-Flux-Residual            L2-New               L2-Old           Solver-Max-Delh
          0                 1           2            13    4     1      -0.6446091495E+02      15    2    1       0.1715396045E+04      0.5763239437E+04      0.8728491782E+01     -0.6446091495E+02
          0                 2           2            13    4     1       0.5570337036E+01      37   16    1       0.2763841410E+04      0.4470696706E+04      0.5763239437E+04      0.5570337036E+01
          0                 3           2            13    4     1       0.2785196425E+00      37   16    1       0.1373993050E+03      0.2362001503E+03      0.4470696706E+04      0.2785196425E+00
          0                 4           2            13    4     1       0.1392333643E-01      37   16    1       0.6866636041E+01      0.1180531156E+02      0.2362001503E+03      0.1392333643E-01

    ------------------------------------------------
       NWT REQUIRED            4 OUTER ITERATIONS 
       AND A TOTAL OF          8 INNER ITERATIONS.
    ------------------------------------------------

 OUTPUT CONTROL FOR STRESS PERIOD    1   TIME STEP  308
    SAVE HEAD FOR ALL LAYERS
    SAVE DRAWDOWN FOR ALL LAYERS
    SAVE BUDGET
    PRINT BUDGET
 UBDSV1 SAVING "         STORAGE" ON UNIT   9 AT TIME STEP308, STRESS PERIOD   1
 UBDSV2 SAVING "   CONSTANT HEAD" ON UNIT   9 AT TIME STEP308, STRESS PERIOD   1
 UBDSV1 SAVING "FLOW RIGHT FACE " ON UNIT   9 AT TIME STEP308, STRESS PERIOD   1
 UBDSV1 SAVING "FLOW FRONT FACE " ON UNIT   9 AT TIME STEP308, STRESS PERIOD   1
 UBDSV4 SAVING "   RIVER LEAKAGE" ON UNIT   9 AT TIME STEP308, STRESS PERIOD   1
 UBDSV3 SAVING "        RECHARGE" ON UNIT   9 AT TIME STEP308, STRESS PERIOD   1

 HEAD WILL BE SAVED ON UNIT 5037 AT END OF TIME STEP  308, STRESS PERIOD    1

 DRAWDOWN WILL BE SAVED ON UNIT   38 AT END OF TIME STEP  308, STRESS PERIOD    1
1
  VOLUMETRIC BUDGET FOR ENTIRE MODEL AT END OF TIME STEP  308, STRESS PERIOD   1
  ------------------------------------------------------------------------------

     CUMULATIVE VOLUMES      L**3       RATES FOR THIS TIME STEP      L**3/T
     ------------------                 ------------------------

           IN:                                      IN:
           ---                                      ---
             STORAGE =    12568218.0000               STORAGE =       50917.0664
       CONSTANT HEAD =           0.0000         CONSTANT HEAD =           0.0000
       RIVER LEAKAGE =     1824635.6250         RIVER LEAKAGE =        7126.2930
            RECHARGE =    10359124.0000              RECHARGE =        5995.2686

            TOTAL IN =    24751978.0000              TOTAL IN =       64038.6289

          OUT:                                     OUT:
          ----                                     ----
             STORAGE =     9957926.0000               STORAGE =       27527.5957
       CONSTANT HEAD =           0.0000         CONSTANT HEAD =           0.0000
       RIVER LEAKAGE =    14775394.0000         RIVER LEAKAGE =       36510.1953
            RECHARGE =           0.0000              RECHARGE =           0.0000

           TOTAL OUT =    24733320.0000             TOTAL OUT =       64037.7891

            IN - OUT =       18658.0000              IN - OUT =           0.8398

 PERCENT DISCREPANCY =           0.08     PERCENT DISCREPANCY =           0.00






         TIME SUMMARY AT END OF TIME STEP  308 IN STRESS PERIOD    1
                    SECONDS     MINUTES      HOURS       DAYS        YEARS
                    -----------------------------------------------------------
   TIME STEP LENGTH  86400.      1440.0      24.000      1.0000     2.73785E-03
 STRESS PERIOD TIME 2.66112E+07 4.43520E+05  7392.0      308.00     0.84326    
         TOTAL TIME 2.66112E+07 4.43520E+05  7392.0      308.00     0.84326    
1
 
 SOLVING FOR HEAD 
                                                   Max.-Head-Change                        Max.-Flux-Residual
  Residual-Control   Outer-Iter.   Inner-Iter.     Column Row Layer    Max.-Head-Change    Column Row Layer    Max.-Flux-Residual            L2-New               L2-Old           Solver-Max-Delh
          0                 1           2            13    4     1      -0.4961247434E+02      15    2    1       0.1609509435E+04      0.5560693868E+04      0.1180531156E+02     -0.4961247434E+02
          0                 2           2            13    4     1       0.4363363048E+01      37   17    1       0.1577375371E+04      0.1703285312E+04      0.5560693868E+04      0.4363363048E+01
          0                 3           2            13    4     1       0.2181703383E+00      37   17    1       0.7861535399E+02      0.9004909443E+02      0.1703285312E+04      0.2181703383E+00
          0                 4           2            13    4     1       0.1090644449E-01      37   17    1       0.3929350598E+01      0.4501137379E+01      0.9004909443E+02      0.1090644449E-01

    ------------------------------------------------
       NWT REQUIRED            4 OUTER ITERATIONS 
       AND A TOTAL OF          8 INNER ITERATIONS.
    ------------------------------------------------

 OUTPUT CONTROL FOR STRESS PERIOD    1   TIME STEP  309
    SAVE HEAD FOR ALL LAYERS
    SAVE DRAWDOWN FOR ALL LAYERS
    SAVE BUDGET
    PRINT BUDGET
 UBDSV1 SAVING "         STORAGE" ON UNIT   9 AT TIME STEP309, STRESS PERIOD   1
 UBDSV2 SAVING "   CONSTANT HEAD" ON UNIT   9 AT TIME STEP309, STRESS PERIOD   1
 UBDSV1 SAVING "FLOW RIGHT FACE " ON UNIT   9 AT TIME STEP309, STRESS PERIOD   1
 UBDSV1 SAVING "FLOW FRONT FACE " ON UNIT   9 AT TIME STEP309, STRESS PERIOD   1
 UBDSV4 SAVING "   RIVER LEAKAGE" ON UNIT   9 AT TIME STEP309, STRESS PERIOD   1
 UBDSV3 SAVING "        RECHARGE" ON UNIT   9 AT TIME STEP309, STRESS PERIOD   1

 HEAD WILL BE SAVED ON UNIT 5037 AT END OF TIME STEP  309, STRESS PERIOD    1

 DRAWDOWN WILL BE SAVED ON UNIT   38 AT END OF TIME STEP  309, STRESS PERIOD    1
1
  VOLUMETRIC BUDGET FOR ENTIRE MODEL AT END OF TIME STEP  309, STRESS PERIOD   1
  ------------------------------------------------------------------------------

     CUMULATIVE VOLUMES      L**3       RATES FOR THIS TIME STEP      L**3/T
     ------------------                 ------------------------

           IN:                                      IN:
           ---                                      ---
             STORAGE =    12624627.0000               STORAGE =       56408.8398
       CONSTANT HEAD =           0.0000         CONSTANT HEAD =           0.0000
       RIVER LEAKAGE =     1829265.2500         RIVER LEAKAGE =        4629.6187
            RECHARGE =    10364616.0000              RECHARGE =        5491.6621

            TOTAL IN =    24818508.0000              TOTAL IN =       66530.1172

          OUT:                                     OUT:
          ----                                     ----
             STORAGE =     9977368.0000               STORAGE =       19441.5664
       CONSTANT HEAD =           0.0000         CONSTANT HEAD =           0.0000
       RIVER LEAKAGE =    14822482.0000         RIVER LEAKAGE =       47087.6523
            RECHARGE =           0.0000              RECHARGE =           0.0000

           TOTAL OUT =    24799850.0000             TOTAL OUT =       66529.2188

            IN - OUT =       18658.0000              IN - OUT =           0.8984

 PERCENT DISCREPANCY =           0.08     PERCENT DISCREPANCY =           0.00






         TIME SUMMARY AT END OF TIME STEP  309 IN STRESS PERIOD    1
                    SECONDS     MINUTES      HOURS       DAYS        YEARS
                    -----------------------------------------------------------
   TIME STEP LENGTH  86400.      1440.0      24.000      1.0000     2.73785E-03
 STRESS PERIOD TIME 2.66976E+07 4.44960E+05  7416.0      309.00     0.84600    
         TOTAL TIME 2.66976E+07 4.44960E+05  7416.0      309.00     0.84600    
1
 
 SOLVING FOR HEAD 
                                                   Max.-Head-Change                        Max.-Flux-Residual
  Residual-Control   Outer-Iter.   Inner-Iter.     Column Row Layer    Max.-Head-Change    Column Row Layer    Max.-Flux-Residual            L2-New               L2-Old           Solver-Max-Delh
          0                 1           2            13    4     1      -0.3822155225E+02      15    2    1       0.1507424437E+04      0.4559437724E+04      0.4501137379E+01     -0.3822155225E+02
          0                 2           2            13    4     1       0.1150540054E+02      35   14    1       0.4139725200E+04      0.4594708442E+04      0.4559437724E+04      0.1150540054E+02
          0                 3           2            13    4     1       0.5752757910E+00      29    4    1       0.7014157176E+03      0.7375355308E+03      0.4594708442E+04      0.5752757910E+00
          0                 4           2            13    4     1       0.2875832493E-01      29    4    1       0.1246037313E+03      0.1251243030E+03      0.7375355308E+03      0.2875832493E-01

    ------------------------------------------------
       NWT REQUIRED            4 OUTER ITERATIONS 
       AND A TOTAL OF          8 INNER ITERATIONS.
    ------------------------------------------------

 OUTPUT CONTROL FOR STRESS PERIOD    1   TIME STEP  310
    SAVE HEAD FOR ALL LAYERS
    SAVE DRAWDOWN FOR ALL LAYERS
    SAVE BUDGET
    PRINT BUDGET
 UBDSV1 SAVING "         STORAGE" ON UNIT   9 AT TIME STEP310, STRESS PERIOD   1
 UBDSV2 SAVING "   CONSTANT HEAD" ON UNIT   9 AT TIME STEP310, STRESS PERIOD   1
 UBDSV1 SAVING "FLOW RIGHT FACE " ON UNIT   9 AT TIME STEP310, STRESS PERIOD   1
 UBDSV1 SAVING "FLOW FRONT FACE " ON UNIT   9 AT TIME STEP310, STRESS PERIOD   1
 UBDSV4 SAVING "   RIVER LEAKAGE" ON UNIT   9 AT TIME STEP310, STRESS PERIOD   1
 UBDSV3 SAVING "        RECHARGE" ON UNIT   9 AT TIME STEP310, STRESS PERIOD   1

 HEAD WILL BE SAVED ON UNIT 5037 AT END OF TIME STEP  310, STRESS PERIOD    1

 DRAWDOWN WILL BE SAVED ON UNIT   38 AT END OF TIME STEP  310, STRESS PERIOD    1
1
  VOLUMETRIC BUDGET FOR ENTIRE MODEL AT END OF TIME STEP  310, STRESS PERIOD   1
  ------------------------------------------------------------------------------

     CUMULATIVE VOLUMES      L**3       RATES FOR THIS TIME STEP      L**3/T
     ------------------                 ------------------------

           IN:                                      IN:
           ---                                      ---
             STORAGE =    12673721.0000               STORAGE =       49094.2891
       CONSTANT HEAD =           0.0000         CONSTANT HEAD =           0.0000
       RIVER LEAKAGE =     1834613.8750         RIVER LEAKAGE =        5348.5835
            RECHARGE =    10369677.0000              RECHARGE =        5060.9053

            TOTAL IN =    24878012.0000              TOTAL IN =       59503.7773

          OUT:                                     OUT:
          ----                                     ----
             STORAGE =     9995167.0000               STORAGE =       17798.7930
       CONSTANT HEAD =           0.0000         CONSTANT HEAD =           0.0000
       RIVER LEAKAGE =    14864164.0000         RIVER LEAKAGE =       41681.8750
            RECHARGE =           0.0000              RECHARGE =           0.0000

           TOTAL OUT =    24859332.0000             TOTAL OUT =       59480.6680

            IN - OUT =       18680.0000              IN - OUT =          23.1094

 PERCENT DISCREPANCY =           0.08     PERCENT DISCREPANCY =           0.04






         TIME SUMMARY AT END OF TIME STEP  310 IN STRESS PERIOD    1
                    SECONDS     MINUTES      HOURS       DAYS        YEARS
                    -----------------------------------------------------------
   TIME STEP LENGTH  86400.      1440.0      24.000      1.0000     2.73785E-03
 STRESS PERIOD TIME 2.67840E+07 4.46400E+05  7440.0      310.00     0.84873    
         TOTAL TIME 2.67840E+07 4.46400E+05  7440.0      310.00     0.84873    
1
 
 SOLVING FOR HEAD 
                                                   Max.-Head-Change                        Max.-Flux-Residual
  Residual-Control   Outer-Iter.   Inner-Iter.     Column Row Layer    Max.-Head-Change    Column Row Layer    Max.-Flux-Residual            L2-New               L2-Old           Solver-Max-Delh
          0                 1           2            11    6     1      -0.2226017918E+02      15    2    1       0.1409695540E+04      0.4239131619E+04      0.2212925923E+02     -0.2226017918E+02
          0                 2           2            11    6     1       0.1922732935E+01      29    4    1       0.9702416810E+03      0.1059566192E+04      0.4239131619E+04      0.1922732935E+01
          0                 3           2            29    4     1      -0.1596842544E+00      29    4    1      -0.9947725842E+02      0.1040853031E+03      0.1059566192E+04     -0.1596842544E+00
          0                 4           2            29    4     1      -0.7984292726E-02      29    4    1      -0.4973848642E+01      0.5204198366E+01      0.1040853031E+03     -0.7984292726E-02

    ------------------------------------------------
       NWT REQUIRED            4 OUTER ITERATIONS 
       AND A TOTAL OF          8 INNER ITERATIONS.
    ------------------------------------------------

 OUTPUT CONTROL FOR STRESS PERIOD    1   TIME STEP  311
    SAVE HEAD FOR ALL LAYERS
    SAVE DRAWDOWN FOR ALL LAYERS
    SAVE BUDGET
    PRINT BUDGET
 UBDSV1 SAVING "         STORAGE" ON UNIT   9 AT TIME STEP311, STRESS PERIOD   1
 UBDSV2 SAVING "   CONSTANT HEAD" ON UNIT   9 AT TIME STEP311, STRESS PERIOD   1
 UBDSV1 SAVING "FLOW RIGHT FACE " ON UNIT   9 AT TIME STEP311, STRESS PERIOD   1
 UBDSV1 SAVING "FLOW FRONT FACE " ON UNIT   9 AT TIME STEP311, STRESS PERIOD   1
 UBDSV4 SAVING "   RIVER LEAKAGE" ON UNIT   9 AT TIME STEP311, STRESS PERIOD   1
 UBDSV3 SAVING "        RECHARGE" ON UNIT   9 AT TIME STEP311, STRESS PERIOD   1

 HEAD WILL BE SAVED ON UNIT 5037 AT END OF TIME STEP  311, STRESS PERIOD    1

 DRAWDOWN WILL BE SAVED ON UNIT   38 AT END OF TIME STEP  311, STRESS PERIOD    1
1
  VOLUMETRIC BUDGET FOR ENTIRE MODEL AT END OF TIME STEP  311, STRESS PERIOD   1
  ------------------------------------------------------------------------------

     CUMULATIVE VOLUMES      L**3       RATES FOR THIS TIME STEP      L**3/T
     ------------------                 ------------------------

           IN:                                      IN:
           ---                                      ---
             STORAGE =    12719523.0000               STORAGE =       45801.7773
       CONSTANT HEAD =           0.0000         CONSTANT HEAD =           0.0000
       RIVER LEAKAGE =     1840170.7500         RIVER LEAKAGE =        5556.8237
            RECHARGE =    10374364.0000              RECHARGE =        4686.5801

            TOTAL IN =    24934058.0000              TOTAL IN =       56045.1797

          OUT:                                     OUT:
          ----                                     ----
             STORAGE =    10011323.0000               STORAGE =       16155.6943
       CONSTANT HEAD =           0.0000         CONSTANT HEAD =           0.0000
       RIVER LEAKAGE =    14904053.0000         RIVER LEAKAGE =       39889.2656
            RECHARGE =           0.0000              RECHARGE =           0.0000

           TOTAL OUT =    24915376.0000             TOTAL OUT =       56044.9609

            IN - OUT =       18682.0000              IN - OUT =           0.2188

 PERCENT DISCREPANCY =           0.07     PERCENT DISCREPANCY =           0.00






         TIME SUMMARY AT END OF TIME STEP  311 IN STRESS PERIOD    1
                    SECONDS     MINUTES      HOURS       DAYS        YEARS
                    -----------------------------------------------------------
   TIME STEP LENGTH  86400.      1440.0      24.000      1.0000     2.73785E-03
 STRESS PERIOD TIME 2.68704E+07 4.47840E+05  7464.0      311.00     0.85147    
         TOTAL TIME 2.68704E+07 4.47840E+05  7464.0      311.00     0.85147    
1
 
 SOLVING FOR HEAD 
                                                   Max.-Head-Change                        Max.-Flux-Residual
  Residual-Control   Outer-Iter.   Inner-Iter.     Column Row Layer    Max.-Head-Change    Column Row Layer    Max.-Flux-Residual            L2-New               L2-Old           Solver-Max-Delh
          0                 1           2            11    6     1      -0.1646143719E+02      15    2    1       0.1316597991E+04      0.3921342333E+04      0.5204198366E+01     -0.1646143719E+02
          1                 1           0            11    6     1      -0.1152300584E+02       9    4    1       0.4143339099E+04      0.5270860110E+04      0.3921342333E+04     -0.1646143719E+02
          0                 2           2            11    6     1      -0.3786135403E+01      15    2    1       0.3027251381E+03      0.9055328807E+03      0.5270860110E+04     -0.3786135403E+01
          1                 2           0            11    6     1      -0.2650294737E+01       9    4    1       0.3157689244E+04      0.3391602187E+04      0.9055328807E+03     -0.3786135403E+01
          2                 2           0            11    6     1      -0.1855206284E+01       9    4    1       0.2187520077E+04      0.2198460146E+04      0.3391602187E+04     -0.3786135403E+01
          3                 2           0            11    6     1      -0.1298644377E+01       9    4    1       0.1508269824E+04      0.1564989114E+04      0.2198460146E+04     -0.3786135403E+01
          4                 2           0            11    6     1      -0.9090510484E+00       9    4    1       0.1032730050E+04      0.1176624596E+04      0.1564989114E+04     -0.3786135403E+01
          0                 3           2            11    6     1      -0.2786170845E+01       9    4    1       0.6998205583E+03      0.9662678738E+03      0.1176624596E+04     -0.2786170845E+01
          1                 3           0            11    6     1      -0.1950319559E+01      11    5    1       0.9696799809E+03      0.1081541824E+04      0.9662678738E+03     -0.2786170845E+01
          0                 4           2            11    6     1      -0.6408193296E+00       9    4    1       0.2341933292E+03      0.3169805022E+03      0.1081541824E+04     -0.6408193296E+00
                                                   Max.-Head-Change                        Max.-Flux-Residual
  Residual-Control   Outer-Iter.   Inner-Iter.     Column Row Layer    Max.-Head-Change    Column Row Layer    Max.-Flux-Residual            L2-New               L2-Old           Solver-Max-Delh
          1                 4           0            11    6     1      -0.4485735231E+00      11    5    1       0.6371048412E+03      0.6374433587E+03      0.3169805022E+03     -0.6408193296E+00
          0                 5           2            11    6     1      -0.1431828405E+00      11    5    1       0.3092552557E+03      0.3248271507E+03      0.6374433587E+03     -0.1431828405E+00
          0                 6           2            11    6     1       0.1236571562E-01      11    5    1       0.1542560960E+02      0.1647962317E+02      0.3248271507E+03      0.1236571562E-01

    ------------------------------------------------
       NWT REQUIRED            6 OUTER ITERATIONS 
       AND A TOTAL OF         12 INNER ITERATIONS.
    ------------------------------------------------

 OUTPUT CONTROL FOR STRESS PERIOD    1   TIME STEP  312
    SAVE HEAD FOR ALL LAYERS
    SAVE DRAWDOWN FOR ALL LAYERS
    SAVE BUDGET
    PRINT BUDGET
 UBDSV1 SAVING "         STORAGE" ON UNIT   9 AT TIME STEP312, STRESS PERIOD   1
 UBDSV2 SAVING "   CONSTANT HEAD" ON UNIT   9 AT TIME STEP312, STRESS PERIOD   1
 UBDSV1 SAVING "FLOW RIGHT FACE " ON UNIT   9 AT TIME STEP312, STRESS PERIOD   1
 UBDSV1 SAVING "FLOW FRONT FACE " ON UNIT   9 AT TIME STEP312, STRESS PERIOD   1
 UBDSV4 SAVING "   RIVER LEAKAGE" ON UNIT   9 AT TIME STEP312, STRESS PERIOD   1
 UBDSV3 SAVING "        RECHARGE" ON UNIT   9 AT TIME STEP312, STRESS PERIOD   1

 HEAD WILL BE SAVED ON UNIT 5037 AT END OF TIME STEP  312, STRESS PERIOD    1

 DRAWDOWN WILL BE SAVED ON UNIT   38 AT END OF TIME STEP  312, STRESS PERIOD    1
1
  VOLUMETRIC BUDGET FOR ENTIRE MODEL AT END OF TIME STEP  312, STRESS PERIOD   1
  ------------------------------------------------------------------------------

     CUMULATIVE VOLUMES      L**3       RATES FOR THIS TIME STEP      L**3/T
     ------------------                 ------------------------

           IN:                                      IN:
           ---                                      ---
             STORAGE =    12763225.0000               STORAGE =       43701.9766
       CONSTANT HEAD =           0.0000         CONSTANT HEAD =           0.0000
       RIVER LEAKAGE =     1845804.6250         RIVER LEAKAGE =        5633.8447
            RECHARGE =    10378721.0000              RECHARGE =        4357.3853

            TOTAL IN =    24987752.0000              TOTAL IN =       53693.2070

          OUT:                                     OUT:
          ----                                     ----
             STORAGE =    10025996.0000               STORAGE =       14672.8447
       CONSTANT HEAD =           0.0000         CONSTANT HEAD =           0.0000
       RIVER LEAKAGE =    14943071.0000         RIVER LEAKAGE =       39017.9570
            RECHARGE =           0.0000              RECHARGE =           0.0000

           TOTAL OUT =    24969068.0000             TOTAL OUT =       53690.8008

            IN - OUT =       18684.0000              IN - OUT =           2.4062

 PERCENT DISCREPANCY =           0.07     PERCENT DISCREPANCY =           0.00






         TIME SUMMARY AT END OF TIME STEP  312 IN STRESS PERIOD    1
                    SECONDS     MINUTES      HOURS       DAYS        YEARS
                    -----------------------------------------------------------
   TIME STEP LENGTH  86400.      1440.0      24.000      1.0000     2.73785E-03
 STRESS PERIOD TIME 2.69568E+07 4.49280E+05  7488.0      312.00     0.85421    
         TOTAL TIME 2.69568E+07 4.49280E+05  7488.0      312.00     0.85421    
1
 
 SOLVING FOR HEAD 
                                                   Max.-Head-Change                        Max.-Flux-Residual
  Residual-Control   Outer-Iter.   Inner-Iter.     Column Row Layer    Max.-Head-Change    Column Row Layer    Max.-Flux-Residual            L2-New               L2-Old           Solver-Max-Delh
          0                 1           2            13    3     1      -0.1251891058E+02      15    2    1       0.1227755698E+04      0.3678511634E+04      0.1647962317E+02     -0.1251891058E+02
          0                 2           2            11    6     1       0.6210305812E+01      15    2    1      -0.1229389892E+03      0.3767402911E+03      0.3678511634E+04      0.6210305812E+01
          0                 3           2            11    6     1       0.3105184019E+00      15    2    1      -0.6148168089E+01      0.1977054380E+02      0.3767402911E+03      0.3105184019E+00
          0                 4           2            11    6     1       0.1552297044E-01      15    2    1      -0.3073498231E+00      0.9883305318E+00      0.1977054380E+02      0.1552297044E-01

    ------------------------------------------------
       NWT REQUIRED            4 OUTER ITERATIONS 
       AND A TOTAL OF          8 INNER ITERATIONS.
    ------------------------------------------------

 OUTPUT CONTROL FOR STRESS PERIOD    1   TIME STEP  313
    SAVE HEAD FOR ALL LAYERS
    SAVE DRAWDOWN FOR ALL LAYERS
    SAVE BUDGET
    PRINT BUDGET
 UBDSV1 SAVING "         STORAGE" ON UNIT   9 AT TIME STEP313, STRESS PERIOD   1
 UBDSV2 SAVING "   CONSTANT HEAD" ON UNIT   9 AT TIME STEP313, STRESS PERIOD   1
 UBDSV1 SAVING "FLOW RIGHT FACE " ON UNIT   9 AT TIME STEP313, STRESS PERIOD   1
 UBDSV1 SAVING "FLOW FRONT FACE " ON UNIT   9 AT TIME STEP313, STRESS PERIOD   1
 UBDSV4 SAVING "   RIVER LEAKAGE" ON UNIT   9 AT TIME STEP313, STRESS PERIOD   1
 UBDSV3 SAVING "        RECHARGE" ON UNIT   9 AT TIME STEP313, STRESS PERIOD   1

 HEAD WILL BE SAVED ON UNIT 5037 AT END OF TIME STEP  313, STRESS PERIOD    1

 DRAWDOWN WILL BE SAVED ON UNIT   38 AT END OF TIME STEP  313, STRESS PERIOD    1
1
  VOLUMETRIC BUDGET FOR ENTIRE MODEL AT END OF TIME STEP  313, STRESS PERIOD   1
  ------------------------------------------------------------------------------

     CUMULATIVE VOLUMES      L**3       RATES FOR THIS TIME STEP      L**3/T
     ------------------                 ------------------------

           IN:                                      IN:
           ---                                      ---
             STORAGE =    12805311.0000               STORAGE =       42086.1914
       CONSTANT HEAD =           0.0000         CONSTANT HEAD =           0.0000
       RIVER LEAKAGE =     1851477.8750         RIVER LEAKAGE =        5673.2026
            RECHARGE =    10382786.0000              RECHARGE =        4065.1848

            TOTAL IN =    25039576.0000              TOTAL IN =       51824.5781

          OUT:                                     OUT:
          ----                                     ----
             STORAGE =    10039382.0000               STORAGE =       13385.8115
       CONSTANT HEAD =           0.0000         CONSTANT HEAD =           0.0000
       RIVER LEAKAGE =    14981509.0000         RIVER LEAKAGE =       38438.3867
            RECHARGE =           0.0000              RECHARGE =           0.0000

           TOTAL OUT =    25020892.0000             TOTAL OUT =       51824.1992

            IN - OUT =       18684.0000              IN - OUT =           0.3789

 PERCENT DISCREPANCY =           0.07     PERCENT DISCREPANCY =           0.00






         TIME SUMMARY AT END OF TIME STEP  313 IN STRESS PERIOD    1
                    SECONDS     MINUTES      HOURS       DAYS        YEARS
                    -----------------------------------------------------------
   TIME STEP LENGTH  86400.      1440.0      24.000      1.0000     2.73785E-03
 STRESS PERIOD TIME 2.70432E+07 4.50720E+05  7512.0      313.00     0.85695    
         TOTAL TIME 2.70432E+07 4.50720E+05  7512.0      313.00     0.85695    
1
 
 SOLVING FOR HEAD 
                                                   Max.-Head-Change                        Max.-Flux-Residual
  Residual-Control   Outer-Iter.   Inner-Iter.     Column Row Layer    Max.-Head-Change    Column Row Layer    Max.-Flux-Residual            L2-New               L2-Old           Solver-Max-Delh
          0                 1           2            13    3     1      -0.1116353939E+02      15    2    1       0.1143415296E+04      0.3484940194E+04      0.9883305318E+00     -0.1116353939E+02
          0                 2           2            11    3     1       0.1918531633E+01      37   19    1       0.1405770991E+04      0.1450258303E+04      0.3484940194E+04      0.1918531633E+01
          0                 3           2            11    3     1       0.9592754236E-01      37   19    1       0.7010757952E+02      0.7231023762E+02      0.1450258303E+04      0.9592754236E-01

    ------------------------------------------------
       NWT REQUIRED            3 OUTER ITERATIONS 
       AND A TOTAL OF          6 INNER ITERATIONS.
    ------------------------------------------------

 OUTPUT CONTROL FOR STRESS PERIOD    1   TIME STEP  314
    SAVE HEAD FOR ALL LAYERS
    SAVE DRAWDOWN FOR ALL LAYERS
    SAVE BUDGET
    PRINT BUDGET
 UBDSV1 SAVING "         STORAGE" ON UNIT   9 AT TIME STEP314, STRESS PERIOD   1
 UBDSV2 SAVING "   CONSTANT HEAD" ON UNIT   9 AT TIME STEP314, STRESS PERIOD   1
 UBDSV1 SAVING "FLOW RIGHT FACE " ON UNIT   9 AT TIME STEP314, STRESS PERIOD   1
 UBDSV1 SAVING "FLOW FRONT FACE " ON UNIT   9 AT TIME STEP314, STRESS PERIOD   1
 UBDSV4 SAVING "   RIVER LEAKAGE" ON UNIT   9 AT TIME STEP314, STRESS PERIOD   1
 UBDSV3 SAVING "        RECHARGE" ON UNIT   9 AT TIME STEP314, STRESS PERIOD   1

 HEAD WILL BE SAVED ON UNIT 5037 AT END OF TIME STEP  314, STRESS PERIOD    1

 DRAWDOWN WILL BE SAVED ON UNIT   38 AT END OF TIME STEP  314, STRESS PERIOD    1
1
  VOLUMETRIC BUDGET FOR ENTIRE MODEL AT END OF TIME STEP  314, STRESS PERIOD   1
  ------------------------------------------------------------------------------

     CUMULATIVE VOLUMES      L**3       RATES FOR THIS TIME STEP      L**3/T
     ------------------                 ------------------------

           IN:                                      IN:
           ---                                      ---
             STORAGE =    12846023.0000               STORAGE =       40711.6133
       CONSTANT HEAD =           0.0000         CONSTANT HEAD =           0.0000
       RIVER LEAKAGE =     1857178.3750         RIVER LEAKAGE =        5700.5479
            RECHARGE =    10386590.0000              RECHARGE =        3803.8923

            TOTAL IN =    25089792.0000              TOTAL IN =       50216.0508

          OUT:                                     OUT:
          ----                                     ----
             STORAGE =    10051615.0000               STORAGE =       12233.0986
       CONSTANT HEAD =           0.0000         CONSTANT HEAD =           0.0000
       RIVER LEAKAGE =    15019481.0000         RIVER LEAKAGE =       37972.1914
            RECHARGE =           0.0000              RECHARGE =           0.0000

           TOTAL OUT =    25071096.0000             TOTAL OUT =       50205.2891

            IN - OUT =       18696.0000              IN - OUT =          10.7617

 PERCENT DISCREPANCY =           0.07     PERCENT DISCREPANCY =           0.02






         TIME SUMMARY AT END OF TIME STEP  314 IN STRESS PERIOD    1
                    SECONDS     MINUTES      HOURS       DAYS        YEARS
                    -----------------------------------------------------------
   TIME STEP LENGTH  86400.      1440.0      24.000      1.0000     2.73785E-03
 STRESS PERIOD TIME 2.71296E+07 4.52160E+05  7536.0      314.00     0.85969    
         TOTAL TIME 2.71296E+07 4.52160E+05  7536.0      314.00     0.85969    
1
 
 SOLVING FOR HEAD 
                                                   Max.-Head-Change                        Max.-Flux-Residual
  Residual-Control   Outer-Iter.   Inner-Iter.     Column Row Layer    Max.-Head-Change    Column Row Layer    Max.-Flux-Residual            L2-New               L2-Old           Solver-Max-Delh
          0                 1           2            13    3     1      -0.9942752843E+01      15    2    1       0.1063257581E+04      0.3320334331E+04      0.7231023762E+02     -0.9942752843E+01
          0                 2           2            34    5     1       0.1433652850E+01      34    5    1       0.5547103942E+03      0.6468894909E+03      0.3320334331E+04      0.1433652850E+01
          0                 3           2            34    5     1      -0.1238154795E+00      34    5    1      -0.5594644692E+02      0.5874818810E+02      0.6468894909E+03     -0.1238154795E+00
          0                 4           2             5    4     1       0.8597551636E-02      34    5    1      -0.2797319344E+01      0.3569791458E+01      0.5874818810E+02      0.8597551636E-02

    ------------------------------------------------
       NWT REQUIRED            4 OUTER ITERATIONS 
       AND A TOTAL OF          8 INNER ITERATIONS.
    ------------------------------------------------

 OUTPUT CONTROL FOR STRESS PERIOD    1   TIME STEP  315
    SAVE HEAD FOR ALL LAYERS
    SAVE DRAWDOWN FOR ALL LAYERS
    SAVE BUDGET
    PRINT BUDGET
 UBDSV1 SAVING "         STORAGE" ON UNIT   9 AT TIME STEP315, STRESS PERIOD   1
 UBDSV2 SAVING "   CONSTANT HEAD" ON UNIT   9 AT TIME STEP315, STRESS PERIOD   1
 UBDSV1 SAVING "FLOW RIGHT FACE " ON UNIT   9 AT TIME STEP315, STRESS PERIOD   1
 UBDSV1 SAVING "FLOW FRONT FACE " ON UNIT   9 AT TIME STEP315, STRESS PERIOD   1
 UBDSV4 SAVING "   RIVER LEAKAGE" ON UNIT   9 AT TIME STEP315, STRESS PERIOD   1
 UBDSV3 SAVING "        RECHARGE" ON UNIT   9 AT TIME STEP315, STRESS PERIOD   1

 HEAD WILL BE SAVED ON UNIT 5037 AT END OF TIME STEP  315, STRESS PERIOD    1

 DRAWDOWN WILL BE SAVED ON UNIT   38 AT END OF TIME STEP  315, STRESS PERIOD    1
1
  VOLUMETRIC BUDGET FOR ENTIRE MODEL AT END OF TIME STEP  315, STRESS PERIOD   1
  ------------------------------------------------------------------------------

     CUMULATIVE VOLUMES      L**3       RATES FOR THIS TIME STEP      L**3/T
     ------------------                 ------------------------

           IN:                                      IN:
           ---                                      ---
             STORAGE =    12885430.0000               STORAGE =       39407.0469
       CONSTANT HEAD =           0.0000         CONSTANT HEAD =           0.0000
       RIVER LEAKAGE =     1862901.7500         RIVER LEAKAGE =        5723.3970
            RECHARGE =    10390159.0000              RECHARGE =        3568.8042

            TOTAL IN =    25138492.0000              TOTAL IN =       48699.2500

          OUT:                                     OUT:
          ----                                     ----
             STORAGE =    10062752.0000               STORAGE =       11136.6191
       CONSTANT HEAD =           0.0000         CONSTANT HEAD =           0.0000
       RIVER LEAKAGE =    15057043.0000         RIVER LEAKAGE =       37562.2734
            RECHARGE =           0.0000              RECHARGE =           0.0000

           TOTAL OUT =    25119796.0000             TOTAL OUT =       48698.8906

            IN - OUT =       18696.0000              IN - OUT =           0.3594

 PERCENT DISCREPANCY =           0.07     PERCENT DISCREPANCY =           0.00






         TIME SUMMARY AT END OF TIME STEP  315 IN STRESS PERIOD    1
                    SECONDS     MINUTES      HOURS       DAYS        YEARS
                    -----------------------------------------------------------
   TIME STEP LENGTH  86400.      1440.0      24.000      1.0000     2.73785E-03
 STRESS PERIOD TIME 2.72160E+07 4.53600E+05  7560.0      315.00     0.86242    
         TOTAL TIME 2.72160E+07 4.53600E+05  7560.0      315.00     0.86242    
1
 
 SOLVING FOR HEAD 
                                                   Max.-Head-Change                        Max.-Flux-Residual
  Residual-Control   Outer-Iter.   Inner-Iter.     Column Row Layer    Max.-Head-Change    Column Row Layer    Max.-Flux-Residual            L2-New               L2-Old           Solver-Max-Delh
          0                 1           2            13    3     1      -0.8784611238E+01      15    2    1       0.9880264700E+03      0.3146508389E+04      0.3569791458E+01     -0.8784611238E+01
          0                 2           2            13    3     1       0.7586709916E+00      20    3    1       0.1672315237E+04      0.2251289743E+04      0.3146508389E+04      0.7586709916E+00
          0                 3           2            13    3     1       0.3793392955E-01      20    3    1       0.8334994257E+02      0.1122323970E+03      0.2251289743E+04      0.3793392955E-01

    ------------------------------------------------
       NWT REQUIRED            3 OUTER ITERATIONS 
       AND A TOTAL OF          6 INNER ITERATIONS.
    ------------------------------------------------

 OUTPUT CONTROL FOR STRESS PERIOD    1   TIME STEP  316
    SAVE HEAD FOR ALL LAYERS
    SAVE DRAWDOWN FOR ALL LAYERS
    SAVE BUDGET
    PRINT BUDGET
 UBDSV1 SAVING "         STORAGE" ON UNIT   9 AT TIME STEP316, STRESS PERIOD   1
 UBDSV2 SAVING "   CONSTANT HEAD" ON UNIT   9 AT TIME STEP316, STRESS PERIOD   1
 UBDSV1 SAVING "FLOW RIGHT FACE " ON UNIT   9 AT TIME STEP316, STRESS PERIOD   1
 UBDSV1 SAVING "FLOW FRONT FACE " ON UNIT   9 AT TIME STEP316, STRESS PERIOD   1
 UBDSV4 SAVING "   RIVER LEAKAGE" ON UNIT   9 AT TIME STEP316, STRESS PERIOD   1
 UBDSV3 SAVING "        RECHARGE" ON UNIT   9 AT TIME STEP316, STRESS PERIOD   1

 HEAD WILL BE SAVED ON UNIT 5037 AT END OF TIME STEP  316, STRESS PERIOD    1

 DRAWDOWN WILL BE SAVED ON UNIT   38 AT END OF TIME STEP  316, STRESS PERIOD    1
1
  VOLUMETRIC BUDGET FOR ENTIRE MODEL AT END OF TIME STEP  316, STRESS PERIOD   1
  ------------------------------------------------------------------------------

     CUMULATIVE VOLUMES      L**3       RATES FOR THIS TIME STEP      L**3/T
     ------------------                 ------------------------

           IN:                                      IN:
           ---                                      ---
             STORAGE =    12923670.0000               STORAGE =       38240.3359
       CONSTANT HEAD =           0.0000         CONSTANT HEAD =           0.0000
       RIVER LEAKAGE =     1868645.3750         RIVER LEAKAGE =        5743.6821
            RECHARGE =    10393515.0000              RECHARGE =        3356.1843

            TOTAL IN =    25185830.0000              TOTAL IN =       47340.2031

          OUT:                                     OUT:
          ----                                     ----
             STORAGE =    10072879.0000               STORAGE =       10127.4014
       CONSTANT HEAD =           0.0000         CONSTANT HEAD =           0.0000
       RIVER LEAKAGE =    15094241.0000         RIVER LEAKAGE =       37197.7266
            RECHARGE =           0.0000              RECHARGE =           0.0000

           TOTAL OUT =    25167120.0000             TOTAL OUT =       47325.1289

            IN - OUT =       18710.0000              IN - OUT =          15.0742

 PERCENT DISCREPANCY =           0.07     PERCENT DISCREPANCY =           0.03






         TIME SUMMARY AT END OF TIME STEP  316 IN STRESS PERIOD    1
                    SECONDS     MINUTES      HOURS       DAYS        YEARS
                    -----------------------------------------------------------
   TIME STEP LENGTH  86400.      1440.0      24.000      1.0000     2.73785E-03
 STRESS PERIOD TIME 2.73024E+07 4.55040E+05  7584.0      316.00     0.86516    
         TOTAL TIME 2.73024E+07 4.55040E+05  7584.0      316.00     0.86516    
1
 
 SOLVING FOR HEAD 
                                                   Max.-Head-Change                        Max.-Flux-Residual
  Residual-Control   Outer-Iter.   Inner-Iter.     Column Row Layer    Max.-Head-Change    Column Row Layer    Max.-Flux-Residual            L2-New               L2-Old           Solver-Max-Delh
          0                 1           2            13    3     1      -0.7791734017E+01      15    2    1       0.9172026336E+03      0.2989350270E+04      0.5609670167E+01     -0.7791734017E+01
          0                 2           2            13    3     1       0.6729225007E+00      15    2    1      -0.9181072263E+02      0.2989673846E+03      0.2989350270E+04      0.6729225007E+00
          0                 3           2            13    3     1       0.3364646206E-01      15    2    1      -0.4591209683E+01      0.1494845815E+02      0.2989673846E+03      0.3364646206E-01

    ------------------------------------------------
       NWT REQUIRED            3 OUTER ITERATIONS 
       AND A TOTAL OF          6 INNER ITERATIONS.
    ------------------------------------------------

 OUTPUT CONTROL FOR STRESS PERIOD    1   TIME STEP  317
    SAVE HEAD FOR ALL LAYERS
    SAVE DRAWDOWN FOR ALL LAYERS
    SAVE BUDGET
    PRINT BUDGET
 UBDSV1 SAVING "         STORAGE" ON UNIT   9 AT TIME STEP317, STRESS PERIOD   1
 UBDSV2 SAVING "   CONSTANT HEAD" ON UNIT   9 AT TIME STEP317, STRESS PERIOD   1
 UBDSV1 SAVING "FLOW RIGHT FACE " ON UNIT   9 AT TIME STEP317, STRESS PERIOD   1
 UBDSV1 SAVING "FLOW FRONT FACE " ON UNIT   9 AT TIME STEP317, STRESS PERIOD   1
 UBDSV4 SAVING "   RIVER LEAKAGE" ON UNIT   9 AT TIME STEP317, STRESS PERIOD   1
 UBDSV3 SAVING "        RECHARGE" ON UNIT   9 AT TIME STEP317, STRESS PERIOD   1

 HEAD WILL BE SAVED ON UNIT 5037 AT END OF TIME STEP  317, STRESS PERIOD    1

 DRAWDOWN WILL BE SAVED ON UNIT   38 AT END OF TIME STEP  317, STRESS PERIOD    1
1
  VOLUMETRIC BUDGET FOR ENTIRE MODEL AT END OF TIME STEP  317, STRESS PERIOD   1
  ------------------------------------------------------------------------------

     CUMULATIVE VOLUMES      L**3       RATES FOR THIS TIME STEP      L**3/T
     ------------------                 ------------------------

           IN:                                      IN:
           ---                                      ---
             STORAGE =    12960847.0000               STORAGE =       37176.6602
       CONSTANT HEAD =           0.0000         CONSTANT HEAD =           0.0000
       RIVER LEAKAGE =     1874407.7500         RIVER LEAKAGE =        5762.4116
            RECHARGE =    10396678.0000              RECHARGE =        3162.9241

            TOTAL IN =    25231932.0000              TOTAL IN =       46101.9961

          OUT:                                     OUT:
          ----                                     ----
             STORAGE =    10082108.0000               STORAGE =        9229.1309
       CONSTANT HEAD =           0.0000         CONSTANT HEAD =           0.0000
       RIVER LEAKAGE =    15131107.0000         RIVER LEAKAGE =       36865.7930
            RECHARGE =           0.0000              RECHARGE =           0.0000

           TOTAL OUT =    25213216.0000             TOTAL OUT =       46094.9219

            IN - OUT =       18716.0000              IN - OUT =           7.0742

 PERCENT DISCREPANCY =           0.07     PERCENT DISCREPANCY =           0.02






         TIME SUMMARY AT END OF TIME STEP  317 IN STRESS PERIOD    1
                    SECONDS     MINUTES      HOURS       DAYS        YEARS
                    -----------------------------------------------------------
   TIME STEP LENGTH  86400.      1440.0      24.000      1.0000     2.73785E-03
 STRESS PERIOD TIME 2.73888E+07 4.56480E+05  7608.0      317.00     0.86790    
         TOTAL TIME 2.73888E+07 4.56480E+05  7608.0      317.00     0.86790    
1
 
 SOLVING FOR HEAD 
                                                   Max.-Head-Change                        Max.-Flux-Residual
  Residual-Control   Outer-Iter.   Inner-Iter.     Column Row Layer    Max.-Head-Change    Column Row Layer    Max.-Flux-Residual            L2-New               L2-Old           Solver-Max-Delh
          0                 1           2            13    3     1      -0.6924422301E+01      15    2    1       0.8502912198E+03      0.2858841893E+04      0.1494845815E+02     -0.6924422301E+01
          0                 2           2            13    3     1       0.5980183223E+00      15    2    1      -0.8510672062E+02      0.2860638286E+03      0.2858841893E+04      0.5980183223E+00
          0                 3           2            13    3     1       0.2990121563E-01      15    2    1      -0.4255913586E+01      0.1430344266E+02      0.2860638286E+03      0.2990121563E-01

    ------------------------------------------------
       NWT REQUIRED            3 OUTER ITERATIONS 
       AND A TOTAL OF          6 INNER ITERATIONS.
    ------------------------------------------------

 OUTPUT CONTROL FOR STRESS PERIOD    1   TIME STEP  318
    SAVE HEAD FOR ALL LAYERS
    SAVE DRAWDOWN FOR ALL LAYERS
    SAVE BUDGET
    PRINT BUDGET
 UBDSV1 SAVING "         STORAGE" ON UNIT   9 AT TIME STEP318, STRESS PERIOD   1
 UBDSV2 SAVING "   CONSTANT HEAD" ON UNIT   9 AT TIME STEP318, STRESS PERIOD   1
 UBDSV1 SAVING "FLOW RIGHT FACE " ON UNIT   9 AT TIME STEP318, STRESS PERIOD   1
 UBDSV1 SAVING "FLOW FRONT FACE " ON UNIT   9 AT TIME STEP318, STRESS PERIOD   1
 UBDSV4 SAVING "   RIVER LEAKAGE" ON UNIT   9 AT TIME STEP318, STRESS PERIOD   1
 UBDSV3 SAVING "        RECHARGE" ON UNIT   9 AT TIME STEP318, STRESS PERIOD   1

 HEAD WILL BE SAVED ON UNIT 5037 AT END OF TIME STEP  318, STRESS PERIOD    1

 DRAWDOWN WILL BE SAVED ON UNIT   38 AT END OF TIME STEP  318, STRESS PERIOD    1
1
  VOLUMETRIC BUDGET FOR ENTIRE MODEL AT END OF TIME STEP  318, STRESS PERIOD   1
  ------------------------------------------------------------------------------

     CUMULATIVE VOLUMES      L**3       RATES FOR THIS TIME STEP      L**3/T
     ------------------                 ------------------------

           IN:                                      IN:
           ---                                      ---
             STORAGE =    12997087.0000               STORAGE =       36239.8242
       CONSTANT HEAD =           0.0000         CONSTANT HEAD =           0.0000
       RIVER LEAKAGE =     1880187.7500         RIVER LEAKAGE =        5780.0508
            RECHARGE =    10399665.0000              RECHARGE =        2986.7988

            TOTAL IN =    25276940.0000              TOTAL IN =       45006.6719

          OUT:                                     OUT:
          ----                                     ----
             STORAGE =    10090549.0000               STORAGE =        8441.2646
       CONSTANT HEAD =           0.0000         CONSTANT HEAD =           0.0000
       RIVER LEAKAGE =    15167665.0000         RIVER LEAKAGE =       36558.3711
            RECHARGE =           0.0000              RECHARGE =           0.0000

           TOTAL OUT =    25258214.0000             TOTAL OUT =       44999.6367

            IN - OUT =       18726.0000              IN - OUT =           7.0352

 PERCENT DISCREPANCY =           0.07     PERCENT DISCREPANCY =           0.02






         TIME SUMMARY AT END OF TIME STEP  318 IN STRESS PERIOD    1
                    SECONDS     MINUTES      HOURS       DAYS        YEARS
                    -----------------------------------------------------------
   TIME STEP LENGTH  86400.      1440.0      24.000      1.0000     2.73785E-03
 STRESS PERIOD TIME 2.74752E+07 4.57920E+05  7632.0      318.00     0.87064    
         TOTAL TIME 2.74752E+07 4.57920E+05  7632.0      318.00     0.87064    
1
 
 SOLVING FOR HEAD 
                                                   Max.-Head-Change                        Max.-Flux-Residual
  Residual-Control   Outer-Iter.   Inner-Iter.     Column Row Layer    Max.-Head-Change    Column Row Layer    Max.-Flux-Residual            L2-New               L2-Old           Solver-Max-Delh
          0                 1           2            13    3     1      -0.6175663704E+01      15    2    1       0.7874433408E+03      0.2746705139E+04      0.1430344266E+02     -0.6175663704E+01
          0                 2           2            13    3     1       0.5338147240E+00      15    2    1       0.9676660977E+02      0.2815293307E+03      0.2746705139E+04      0.5338147240E+00
          0                 3           2            15    2     1      -0.3497069223E-01      15    2    1      -0.1062168484E+02      0.1727017835E+02      0.2815293307E+03     -0.3497069223E-01

    ------------------------------------------------
       NWT REQUIRED            3 OUTER ITERATIONS 
       AND A TOTAL OF          6 INNER ITERATIONS.
    ------------------------------------------------

 OUTPUT CONTROL FOR STRESS PERIOD    1   TIME STEP  319
    SAVE HEAD FOR ALL LAYERS
    SAVE DRAWDOWN FOR ALL LAYERS
    SAVE BUDGET
    PRINT BUDGET
 UBDSV1 SAVING "         STORAGE" ON UNIT   9 AT TIME STEP319, STRESS PERIOD   1
 UBDSV2 SAVING "   CONSTANT HEAD" ON UNIT   9 AT TIME STEP319, STRESS PERIOD   1
 UBDSV1 SAVING "FLOW RIGHT FACE " ON UNIT   9 AT TIME STEP319, STRESS PERIOD   1
 UBDSV1 SAVING "FLOW FRONT FACE " ON UNIT   9 AT TIME STEP319, STRESS PERIOD   1
 UBDSV4 SAVING "   RIVER LEAKAGE" ON UNIT   9 AT TIME STEP319, STRESS PERIOD   1
 UBDSV3 SAVING "        RECHARGE" ON UNIT   9 AT TIME STEP319, STRESS PERIOD   1

 HEAD WILL BE SAVED ON UNIT 5037 AT END OF TIME STEP  319, STRESS PERIOD    1

 DRAWDOWN WILL BE SAVED ON UNIT   38 AT END OF TIME STEP  319, STRESS PERIOD    1
1
  VOLUMETRIC BUDGET FOR ENTIRE MODEL AT END OF TIME STEP  319, STRESS PERIOD   1
  ------------------------------------------------------------------------------

     CUMULATIVE VOLUMES      L**3       RATES FOR THIS TIME STEP      L**3/T
     ------------------                 ------------------------

           IN:                                      IN:
           ---                                      ---
             STORAGE =    13032432.0000               STORAGE =       35344.9219
       CONSTANT HEAD =           0.0000         CONSTANT HEAD =           0.0000
       RIVER LEAKAGE =     1885984.3750         RIVER LEAKAGE =        5796.6597
            RECHARGE =    10402499.0000              RECHARGE =        2834.2556

            TOTAL IN =    25320916.0000              TOTAL IN =       43975.8359

          OUT:                                     OUT:
          ----                                     ----
             STORAGE =    10098235.0000               STORAGE =        7685.7832
       CONSTANT HEAD =           0.0000         CONSTANT HEAD =           0.0000
       RIVER LEAKAGE =    15203948.0000         RIVER LEAKAGE =       36283.3555
            RECHARGE =           0.0000              RECHARGE =           0.0000

           TOTAL OUT =    25302184.0000             TOTAL OUT =       43969.1406

            IN - OUT =       18732.0000              IN - OUT =           6.6953

 PERCENT DISCREPANCY =           0.07     PERCENT DISCREPANCY =           0.02






         TIME SUMMARY AT END OF TIME STEP  319 IN STRESS PERIOD    1
                    SECONDS     MINUTES      HOURS       DAYS        YEARS
                    -----------------------------------------------------------
   TIME STEP LENGTH  86400.      1440.0      24.000      1.0000     2.73785E-03
 STRESS PERIOD TIME 2.75616E+07 4.59360E+05  7656.0      319.00     0.87337    
         TOTAL TIME 2.75616E+07 4.59360E+05  7656.0      319.00     0.87337    
1
 
 SOLVING FOR HEAD 
                                                   Max.-Head-Change                        Max.-Flux-Residual
  Residual-Control   Outer-Iter.   Inner-Iter.     Column Row Layer    Max.-Head-Change    Column Row Layer    Max.-Flux-Residual            L2-New               L2-Old           Solver-Max-Delh
          0                 1           2            13    3     1      -0.5525916306E+01      15    2    1       0.7083169171E+03      0.2641880462E+04      0.1727017835E+02     -0.5525916306E+01
          0                 2           2            13    3     1       0.4773317917E+00      11    7    1       0.1025806197E+04      0.1059908840E+04      0.2641880462E+04      0.4773317917E+00
          0                 3           2            13    3     1       0.2377328133E-01      11    7    1       0.5118034192E+02      0.5312858813E+02      0.1059908840E+04      0.2377328133E-01

    ------------------------------------------------
       NWT REQUIRED            3 OUTER ITERATIONS 
       AND A TOTAL OF          6 INNER ITERATIONS.
    ------------------------------------------------

 OUTPUT CONTROL FOR STRESS PERIOD    1   TIME STEP  320
    SAVE HEAD FOR ALL LAYERS
    SAVE DRAWDOWN FOR ALL LAYERS
    SAVE BUDGET
    PRINT BUDGET
 UBDSV1 SAVING "         STORAGE" ON UNIT   9 AT TIME STEP320, STRESS PERIOD   1
 UBDSV2 SAVING "   CONSTANT HEAD" ON UNIT   9 AT TIME STEP320, STRESS PERIOD   1
 UBDSV1 SAVING "FLOW RIGHT FACE " ON UNIT   9 AT TIME STEP320, STRESS PERIOD   1
 UBDSV1 SAVING "FLOW FRONT FACE " ON UNIT   9 AT TIME STEP320, STRESS PERIOD   1
 UBDSV4 SAVING "   RIVER LEAKAGE" ON UNIT   9 AT TIME STEP320, STRESS PERIOD   1
 UBDSV3 SAVING "        RECHARGE" ON UNIT   9 AT TIME STEP320, STRESS PERIOD   1

 HEAD WILL BE SAVED ON UNIT 5037 AT END OF TIME STEP  320, STRESS PERIOD    1

 DRAWDOWN WILL BE SAVED ON UNIT   38 AT END OF TIME STEP  320, STRESS PERIOD    1
1
  VOLUMETRIC BUDGET FOR ENTIRE MODEL AT END OF TIME STEP  320, STRESS PERIOD   1
  ------------------------------------------------------------------------------

     CUMULATIVE VOLUMES      L**3       RATES FOR THIS TIME STEP      L**3/T
     ------------------                 ------------------------

           IN:                                      IN:
           ---                                      ---
             STORAGE =    13066932.0000               STORAGE =       34500.1641
       CONSTANT HEAD =           0.0000         CONSTANT HEAD =           0.0000
       RIVER LEAKAGE =     1891796.7500         RIVER LEAKAGE =        5812.3291
            RECHARGE =    10405181.0000              RECHARGE =        2681.9619

            TOTAL IN =    25363910.0000              TOTAL IN =       42994.4531

          OUT:                                     OUT:
          ----                                     ----
             STORAGE =    10105200.0000               STORAGE =        6964.8228
       CONSTANT HEAD =           0.0000         CONSTANT HEAD =           0.0000
       RIVER LEAKAGE =    15239968.0000         RIVER LEAKAGE =       36020.2500
            RECHARGE =           0.0000              RECHARGE =           0.0000

           TOTAL OUT =    25345168.0000             TOTAL OUT =       42985.0742

            IN - OUT =       18742.0000              IN - OUT =           9.3789

 PERCENT DISCREPANCY =           0.07     PERCENT DISCREPANCY =           0.02






         TIME SUMMARY AT END OF TIME STEP  320 IN STRESS PERIOD    1
                    SECONDS     MINUTES      HOURS       DAYS        YEARS
                    -----------------------------------------------------------
   TIME STEP LENGTH  86400.      1440.0      24.000      1.0000     2.73785E-03
 STRESS PERIOD TIME 2.76480E+07 4.60800E+05  7680.0      320.00     0.87611    
         TOTAL TIME 2.76480E+07 4.60800E+05  7680.0      320.00     0.87611    
1
 
 SOLVING FOR HEAD 
                                                   Max.-Head-Change                        Max.-Flux-Residual
  Residual-Control   Outer-Iter.   Inner-Iter.     Column Row Layer    Max.-Head-Change    Column Row Layer    Max.-Flux-Residual            L2-New               L2-Old           Solver-Max-Delh
          0                 1           2            13    3     1      -0.4961598910E+01      15    2    1       0.5413291092E+03      0.2523979517E+04      0.5312858813E+02     -0.4961598910E+01
          1                 1           0            13    3     1      -0.3473119178E+01      16    4    1       0.6007827491E+04      0.6457961310E+04      0.2523979517E+04     -0.4961598910E+01
          2                 1           0            13    3     1      -0.2431183383E+01      16    4    1       0.3570296610E+04      0.3746731197E+04      0.6457961310E+04     -0.4961598910E+01
          0                 2           2            13    3     1      -0.2288205809E+01      16    4    1       0.1863234904E+04      0.2196296728E+04      0.3746731197E+04     -0.2288205809E+01
          0                 3           2            13    3     1       0.1976177843E+00      16    4    1       0.9155162801E+02      0.1479818857E+03      0.2196296728E+04      0.1976177843E+00
          0                 4           2            13    3     1       0.9880988267E-02      16    4    1       0.4575865224E+01      0.7398001788E+01      0.1479818857E+03      0.9880988267E-02

    ------------------------------------------------
       NWT REQUIRED            4 OUTER ITERATIONS 
       AND A TOTAL OF          8 INNER ITERATIONS.
    ------------------------------------------------

 OUTPUT CONTROL FOR STRESS PERIOD    1   TIME STEP  321
    SAVE HEAD FOR ALL LAYERS
    SAVE DRAWDOWN FOR ALL LAYERS
    SAVE BUDGET
    PRINT BUDGET
 UBDSV1 SAVING "         STORAGE" ON UNIT   9 AT TIME STEP321, STRESS PERIOD   1
 UBDSV2 SAVING "   CONSTANT HEAD" ON UNIT   9 AT TIME STEP321, STRESS PERIOD   1
 UBDSV1 SAVING "FLOW RIGHT FACE " ON UNIT   9 AT TIME STEP321, STRESS PERIOD   1
 UBDSV1 SAVING "FLOW FRONT FACE " ON UNIT   9 AT TIME STEP321, STRESS PERIOD   1
 UBDSV4 SAVING "   RIVER LEAKAGE" ON UNIT   9 AT TIME STEP321, STRESS PERIOD   1
 UBDSV3 SAVING "        RECHARGE" ON UNIT   9 AT TIME STEP321, STRESS PERIOD   1

 HEAD WILL BE SAVED ON UNIT 5037 AT END OF TIME STEP  321, STRESS PERIOD    1

 DRAWDOWN WILL BE SAVED ON UNIT   38 AT END OF TIME STEP  321, STRESS PERIOD    1
1
  VOLUMETRIC BUDGET FOR ENTIRE MODEL AT END OF TIME STEP  321, STRESS PERIOD   1
  ------------------------------------------------------------------------------

     CUMULATIVE VOLUMES      L**3       RATES FOR THIS TIME STEP      L**3/T
     ------------------                 ------------------------

           IN:                                      IN:
           ---                                      ---
             STORAGE =    13100628.0000               STORAGE =       33696.3086
       CONSTANT HEAD =           0.0000         CONSTANT HEAD =           0.0000
       RIVER LEAKAGE =     1897624.0000         RIVER LEAKAGE =        5827.2485
            RECHARGE =    10407724.0000              RECHARGE =        2543.4280

            TOTAL IN =    25405976.0000              TOTAL IN =       42066.9883

          OUT:                                     OUT:
          ----                                     ----
             STORAGE =    10111485.0000               STORAGE =        6284.7036
       CONSTANT HEAD =           0.0000         CONSTANT HEAD =           0.0000
       RIVER LEAKAGE =    15275747.0000         RIVER LEAKAGE =       35778.8867
            RECHARGE =           0.0000              RECHARGE =           0.0000

           TOTAL OUT =    25387232.0000             TOTAL OUT =       42063.5898

            IN - OUT =       18744.0000              IN - OUT =           3.3984

 PERCENT DISCREPANCY =           0.07     PERCENT DISCREPANCY =           0.01






         TIME SUMMARY AT END OF TIME STEP  321 IN STRESS PERIOD    1
                    SECONDS     MINUTES      HOURS       DAYS        YEARS
                    -----------------------------------------------------------
   TIME STEP LENGTH  86400.      1440.0      24.000      1.0000     2.73785E-03
 STRESS PERIOD TIME 2.77344E+07 4.62240E+05  7704.0      321.00     0.87885    
         TOTAL TIME 2.77344E+07 4.62240E+05  7704.0      321.00     0.87885    
1
 
 SOLVING FOR HEAD 
                                                   Max.-Head-Change                        Max.-Flux-Residual
  Residual-Control   Outer-Iter.   Inner-Iter.     Column Row Layer    Max.-Head-Change    Column Row Layer    Max.-Flux-Residual            L2-New               L2-Old           Solver-Max-Delh
          0                 1           2            13    3     1      -0.4396239207E+01      15    2    1       0.4101595451E+03      0.2438847154E+04      0.7398001788E+01     -0.4396239207E+01
          0                 2           2            13    3     1       0.3796581967E+00      15    2    1      -0.4101595512E+02      0.2437595939E+03      0.2438847154E+04      0.3796581967E+00
          0                 3           2            13    3     1       0.1898310029E-01      15    2    1      -0.2050796717E+01      0.1218873146E+02      0.2437595939E+03      0.1898310029E-01

    ------------------------------------------------
       NWT REQUIRED            3 OUTER ITERATIONS 
       AND A TOTAL OF          6 INNER ITERATIONS.
    ------------------------------------------------

 OUTPUT CONTROL FOR STRESS PERIOD    1   TIME STEP  322
    SAVE HEAD FOR ALL LAYERS
    SAVE DRAWDOWN FOR ALL LAYERS
    SAVE BUDGET
    PRINT BUDGET
 UBDSV1 SAVING "         STORAGE" ON UNIT   9 AT TIME STEP322, STRESS PERIOD   1
 UBDSV2 SAVING "   CONSTANT HEAD" ON UNIT   9 AT TIME STEP322, STRESS PERIOD   1
 UBDSV1 SAVING "FLOW RIGHT FACE " ON UNIT   9 AT TIME STEP322, STRESS PERIOD   1
 UBDSV1 SAVING "FLOW FRONT FACE " ON UNIT   9 AT TIME STEP322, STRESS PERIOD   1
 UBDSV4 SAVING "   RIVER LEAKAGE" ON UNIT   9 AT TIME STEP322, STRESS PERIOD   1
 UBDSV3 SAVING "        RECHARGE" ON UNIT   9 AT TIME STEP322, STRESS PERIOD   1

 HEAD WILL BE SAVED ON UNIT 5037 AT END OF TIME STEP  322, STRESS PERIOD    1

 DRAWDOWN WILL BE SAVED ON UNIT   38 AT END OF TIME STEP  322, STRESS PERIOD    1
1
  VOLUMETRIC BUDGET FOR ENTIRE MODEL AT END OF TIME STEP  322, STRESS PERIOD   1
  ------------------------------------------------------------------------------

     CUMULATIVE VOLUMES      L**3       RATES FOR THIS TIME STEP      L**3/T
     ------------------                 ------------------------

           IN:                                      IN:
           ---                                      ---
             STORAGE =    13133092.0000               STORAGE =       32464.4141
       CONSTANT HEAD =           0.0000         CONSTANT HEAD =           0.0000
       RIVER LEAKAGE =     1903373.2500         RIVER LEAKAGE =        5749.2344
            RECHARGE =    10411771.0000              RECHARGE =        4047.1086

            TOTAL IN =    25448236.0000              TOTAL IN =       42260.7578

          OUT:                                     OUT:
          ----                                     ----
             STORAGE =    10117596.0000               STORAGE =        6110.9219
       CONSTANT HEAD =           0.0000         CONSTANT HEAD =           0.0000
       RIVER LEAKAGE =    15311890.0000         RIVER LEAKAGE =       36143.3594
            RECHARGE =           0.0000              RECHARGE =           0.0000

           TOTAL OUT =    25429486.0000             TOTAL OUT =       42254.2812

            IN - OUT =       18750.0000              IN - OUT =           6.4766

 PERCENT DISCREPANCY =           0.07     PERCENT DISCREPANCY =           0.02






         TIME SUMMARY AT END OF TIME STEP  322 IN STRESS PERIOD    1
                    SECONDS     MINUTES      HOURS       DAYS        YEARS
                    -----------------------------------------------------------
   TIME STEP LENGTH  86400.      1440.0      24.000      1.0000     2.73785E-03
 STRESS PERIOD TIME 2.78208E+07 4.63680E+05  7728.0      322.00     0.88159    
         TOTAL TIME 2.78208E+07 4.63680E+05  7728.0      322.00     0.88159    
1
 
 SOLVING FOR HEAD 
                                                   Max.-Head-Change                        Max.-Flux-Residual
  Residual-Control   Outer-Iter.   Inner-Iter.     Column Row Layer    Max.-Head-Change    Column Row Layer    Max.-Flux-Residual            L2-New               L2-Old           Solver-Max-Delh
          0                 1           2            13    4     1       0.1502352222E+02      28    7    1       0.4010522687E+03      0.2501681787E+04      0.1218873146E+02      0.1502352222E+02
          0                 2           2            13    4     1       0.1926477051E+02      11    2    1      -0.1371508044E+03      0.3024505776E+03      0.2501681787E+04      0.1926477051E+02
          0                 3           2            13    4     1      -0.1664660667E+01      12    3    1      -0.9466737785E+01      0.1739556971E+02      0.3024505776E+03     -0.1664660667E+01
          0                 4           2            13    4     1      -0.8323386734E-01      12    3    1      -0.4599168429E+00      0.8578981980E+00      0.1739556971E+02     -0.8323386734E-01

    ------------------------------------------------
       NWT REQUIRED            4 OUTER ITERATIONS 
       AND A TOTAL OF          8 INNER ITERATIONS.
    ------------------------------------------------

 OUTPUT CONTROL FOR STRESS PERIOD    1   TIME STEP  323
    SAVE HEAD FOR ALL LAYERS
    SAVE DRAWDOWN FOR ALL LAYERS
    SAVE BUDGET
    PRINT BUDGET
 UBDSV1 SAVING "         STORAGE" ON UNIT   9 AT TIME STEP323, STRESS PERIOD   1
 UBDSV2 SAVING "   CONSTANT HEAD" ON UNIT   9 AT TIME STEP323, STRESS PERIOD   1
 UBDSV1 SAVING "FLOW RIGHT FACE " ON UNIT   9 AT TIME STEP323, STRESS PERIOD   1
 UBDSV1 SAVING "FLOW FRONT FACE " ON UNIT   9 AT TIME STEP323, STRESS PERIOD   1
 UBDSV4 SAVING "   RIVER LEAKAGE" ON UNIT   9 AT TIME STEP323, STRESS PERIOD   1
 UBDSV3 SAVING "        RECHARGE" ON UNIT   9 AT TIME STEP323, STRESS PERIOD   1

 HEAD WILL BE SAVED ON UNIT 5037 AT END OF TIME STEP  323, STRESS PERIOD    1

 DRAWDOWN WILL BE SAVED ON UNIT   38 AT END OF TIME STEP  323, STRESS PERIOD    1
1
  VOLUMETRIC BUDGET FOR ENTIRE MODEL AT END OF TIME STEP  323, STRESS PERIOD   1
  ------------------------------------------------------------------------------

     CUMULATIVE VOLUMES      L**3       RATES FOR THIS TIME STEP      L**3/T
     ------------------                 ------------------------

           IN:                                      IN:
           ---                                      ---
             STORAGE =    13163127.0000               STORAGE =       30034.8789
       CONSTANT HEAD =           0.0000         CONSTANT HEAD =           0.0000
       RIVER LEAKAGE =     1909092.0000         RIVER LEAKAGE =        5718.7422
            RECHARGE =    10421959.0000              RECHARGE =       10187.7236

            TOTAL IN =    25494178.0000              TOTAL IN =       45941.3438

          OUT:                                     OUT:
          ----                                     ----
             STORAGE =    10124747.0000               STORAGE =        7150.5698
       CONSTANT HEAD =           0.0000         CONSTANT HEAD =           0.0000
       RIVER LEAKAGE =    15350681.0000         RIVER LEAKAGE =       38790.5781
            RECHARGE =           0.0000              RECHARGE =           0.0000

           TOTAL OUT =    25475428.0000             TOTAL OUT =       45941.1484

            IN - OUT =       18750.0000              IN - OUT =           0.1953

 PERCENT DISCREPANCY =           0.07     PERCENT DISCREPANCY =           0.00






         TIME SUMMARY AT END OF TIME STEP  323 IN STRESS PERIOD    1
                    SECONDS     MINUTES      HOURS       DAYS        YEARS
                    -----------------------------------------------------------
   TIME STEP LENGTH  86400.      1440.0      24.000      1.0000     2.73785E-03
 STRESS PERIOD TIME 2.79072E+07 4.65120E+05  7752.0      323.00     0.88433    
         TOTAL TIME 2.79072E+07 4.65120E+05  7752.0      323.00     0.88433    
1
 
 SOLVING FOR HEAD 
                                                   Max.-Head-Change                        Max.-Flux-Residual
  Residual-Control   Outer-Iter.   Inner-Iter.     Column Row Layer    Max.-Head-Change    Column Row Layer    Max.-Flux-Residual            L2-New               L2-Old           Solver-Max-Delh
          0                 1           2            14    3     1      -0.3169486266E+01      26   14    1      -0.3939211124E+03      0.2228128638E+04      0.8578981980E+00     -0.3169486266E+01
          0                 2           2            14    3     1       0.2737286065E+00      18    3    1       0.1268523729E+03      0.2563676772E+03      0.2228128638E+04      0.2737286065E+00
          0                 3           2            14    3     1       0.1368656983E-01      18    3    1       0.6341216569E+01      0.1281752462E+02      0.2563676772E+03      0.1368656983E-01

    ------------------------------------------------
       NWT REQUIRED            3 OUTER ITERATIONS 
       AND A TOTAL OF          6 INNER ITERATIONS.
    ------------------------------------------------

 OUTPUT CONTROL FOR STRESS PERIOD    1   TIME STEP  324
    SAVE HEAD FOR ALL LAYERS
    SAVE DRAWDOWN FOR ALL LAYERS
    SAVE BUDGET
    PRINT BUDGET
 UBDSV1 SAVING "         STORAGE" ON UNIT   9 AT TIME STEP324, STRESS PERIOD   1
 UBDSV2 SAVING "   CONSTANT HEAD" ON UNIT   9 AT TIME STEP324, STRESS PERIOD   1
 UBDSV1 SAVING "FLOW RIGHT FACE " ON UNIT   9 AT TIME STEP324, STRESS PERIOD   1
 UBDSV1 SAVING "FLOW FRONT FACE " ON UNIT   9 AT TIME STEP324, STRESS PERIOD   1
 UBDSV4 SAVING "   RIVER LEAKAGE" ON UNIT   9 AT TIME STEP324, STRESS PERIOD   1
 UBDSV3 SAVING "        RECHARGE" ON UNIT   9 AT TIME STEP324, STRESS PERIOD   1

 HEAD WILL BE SAVED ON UNIT 5037 AT END OF TIME STEP  324, STRESS PERIOD    1

 DRAWDOWN WILL BE SAVED ON UNIT   38 AT END OF TIME STEP  324, STRESS PERIOD    1
1
  VOLUMETRIC BUDGET FOR ENTIRE MODEL AT END OF TIME STEP  324, STRESS PERIOD   1
  ------------------------------------------------------------------------------

     CUMULATIVE VOLUMES      L**3       RATES FOR THIS TIME STEP      L**3/T
     ------------------                 ------------------------

           IN:                                      IN:
           ---                                      ---
             STORAGE =    13193566.0000               STORAGE =       30439.3457
       CONSTANT HEAD =           0.0000         CONSTANT HEAD =           0.0000
       RIVER LEAKAGE =     1914825.6250         RIVER LEAKAGE =        5733.6685
            RECHARGE =    10428356.0000              RECHARGE =        6397.0103

            TOTAL IN =    25536748.0000              TOTAL IN =       42570.0273

          OUT:                                     OUT:
          ----                                     ----
             STORAGE =    10129551.0000               STORAGE =        4804.1001
       CONSTANT HEAD =           0.0000         CONSTANT HEAD =           0.0000
       RIVER LEAKAGE =    15388440.0000         RIVER LEAKAGE =       37758.9453
            RECHARGE =           0.0000              RECHARGE =           0.0000

           TOTAL OUT =    25517992.0000             TOTAL OUT =       42563.0469

            IN - OUT =       18756.0000              IN - OUT =           6.9805

 PERCENT DISCREPANCY =           0.07     PERCENT DISCREPANCY =           0.02






         TIME SUMMARY AT END OF TIME STEP  324 IN STRESS PERIOD    1
                    SECONDS     MINUTES      HOURS       DAYS        YEARS
                    -----------------------------------------------------------
   TIME STEP LENGTH  86400.      1440.0      24.000      1.0000     2.73785E-03
 STRESS PERIOD TIME 2.79936E+07 4.66560E+05  7776.0      324.00     0.88706    
         TOTAL TIME 2.79936E+07 4.66560E+05  7776.0      324.00     0.88706    
1
 
 SOLVING FOR HEAD 
                                                   Max.-Head-Change                        Max.-Flux-Residual
  Residual-Control   Outer-Iter.   Inner-Iter.     Column Row Layer    Max.-Head-Change    Column Row Layer    Max.-Flux-Residual            L2-New               L2-Old           Solver-Max-Delh
          0                 1           2            13    4     1      -0.1259889094E+02      26   14    1      -0.3935875779E+03      0.2200212040E+04      0.1281752462E+02     -0.1259889094E+02
          0                 2           2            13    4     1       0.1089473514E+01      26   14    1       0.3933967052E+02      0.2219932831E+03      0.2200212040E+04      0.1089473514E+01
          0                 3           2            13    4     1       0.5447422158E-01      26   14    1       0.1966840267E+01      0.1110225586E+02      0.2219932831E+03      0.5447422158E-01

    ------------------------------------------------
       NWT REQUIRED            3 OUTER ITERATIONS 
       AND A TOTAL OF          6 INNER ITERATIONS.
    ------------------------------------------------

 OUTPUT CONTROL FOR STRESS PERIOD    1   TIME STEP  325
    SAVE HEAD FOR ALL LAYERS
    SAVE DRAWDOWN FOR ALL LAYERS
    SAVE BUDGET
    PRINT BUDGET
 UBDSV1 SAVING "         STORAGE" ON UNIT   9 AT TIME STEP325, STRESS PERIOD   1
 UBDSV2 SAVING "   CONSTANT HEAD" ON UNIT   9 AT TIME STEP325, STRESS PERIOD   1
 UBDSV1 SAVING "FLOW RIGHT FACE " ON UNIT   9 AT TIME STEP325, STRESS PERIOD   1
 UBDSV1 SAVING "FLOW FRONT FACE " ON UNIT   9 AT TIME STEP325, STRESS PERIOD   1
 UBDSV4 SAVING "   RIVER LEAKAGE" ON UNIT   9 AT TIME STEP325, STRESS PERIOD   1
 UBDSV3 SAVING "        RECHARGE" ON UNIT   9 AT TIME STEP325, STRESS PERIOD   1

 HEAD WILL BE SAVED ON UNIT 5037 AT END OF TIME STEP  325, STRESS PERIOD    1

 DRAWDOWN WILL BE SAVED ON UNIT   38 AT END OF TIME STEP  325, STRESS PERIOD    1
1
  VOLUMETRIC BUDGET FOR ENTIRE MODEL AT END OF TIME STEP  325, STRESS PERIOD   1
  ------------------------------------------------------------------------------

     CUMULATIVE VOLUMES      L**3       RATES FOR THIS TIME STEP      L**3/T
     ------------------                 ------------------------

           IN:                                      IN:
           ---                                      ---
             STORAGE =    13224455.0000               STORAGE =       30889.4219
       CONSTANT HEAD =           0.0000         CONSTANT HEAD =           0.0000
       RIVER LEAKAGE =     1920594.5000         RIVER LEAKAGE =        5768.8828
            RECHARGE =    10432629.0000              RECHARGE =        4273.2466

            TOTAL IN =    25577680.0000              TOTAL IN =       40931.5508

          OUT:                                     OUT:
          ----                                     ----
             STORAGE =    10133909.0000               STORAGE =        4357.6899
       CONSTANT HEAD =           0.0000         CONSTANT HEAD =           0.0000
       RIVER LEAKAGE =    15425007.0000         RIVER LEAKAGE =       36566.9258
            RECHARGE =           0.0000              RECHARGE =           0.0000

           TOTAL OUT =    25558916.0000             TOTAL OUT =       40924.6172

            IN - OUT =       18764.0000              IN - OUT =           6.9336

 PERCENT DISCREPANCY =           0.07     PERCENT DISCREPANCY =           0.02






         TIME SUMMARY AT END OF TIME STEP  325 IN STRESS PERIOD    1
                    SECONDS     MINUTES      HOURS       DAYS        YEARS
                    -----------------------------------------------------------
   TIME STEP LENGTH  86400.      1440.0      24.000      1.0000     2.73785E-03
 STRESS PERIOD TIME 2.80800E+07 4.68000E+05  7800.0      325.00     0.88980    
         TOTAL TIME 2.80800E+07 4.68000E+05  7800.0      325.00     0.88980    
1
 
 SOLVING FOR HEAD 
                                                   Max.-Head-Change                        Max.-Flux-Residual
  Residual-Control   Outer-Iter.   Inner-Iter.     Column Row Layer    Max.-Head-Change    Column Row Layer    Max.-Flux-Residual            L2-New               L2-Old           Solver-Max-Delh
          0                 1           2            13    4     1      -0.1599012201E+02      26   14    1      -0.3929207550E+03      0.2163659808E+04      0.1110225586E+02     -0.1599012201E+02
          0                 2           2            13    4     1       0.1380709299E+01      26   14    1       0.3927274201E+02      0.2184822104E+03      0.2163659808E+04      0.1380709299E+01
          0                 3           2            13    4     1       0.6903615672E-01      26   14    1       0.1963492014E+01      0.1092390994E+02      0.2184822104E+03      0.6903615672E-01

    ------------------------------------------------
       NWT REQUIRED            3 OUTER ITERATIONS 
       AND A TOTAL OF          6 INNER ITERATIONS.
    ------------------------------------------------

 OUTPUT CONTROL FOR STRESS PERIOD    1   TIME STEP  326
    SAVE HEAD FOR ALL LAYERS
    SAVE DRAWDOWN FOR ALL LAYERS
    SAVE BUDGET
    PRINT BUDGET
 UBDSV1 SAVING "         STORAGE" ON UNIT   9 AT TIME STEP326, STRESS PERIOD   1
 UBDSV2 SAVING "   CONSTANT HEAD" ON UNIT   9 AT TIME STEP326, STRESS PERIOD   1
 UBDSV1 SAVING "FLOW RIGHT FACE " ON UNIT   9 AT TIME STEP326, STRESS PERIOD   1
 UBDSV1 SAVING "FLOW FRONT FACE " ON UNIT   9 AT TIME STEP326, STRESS PERIOD   1
 UBDSV4 SAVING "   RIVER LEAKAGE" ON UNIT   9 AT TIME STEP326, STRESS PERIOD   1
 UBDSV3 SAVING "        RECHARGE" ON UNIT   9 AT TIME STEP326, STRESS PERIOD   1

 HEAD WILL BE SAVED ON UNIT 5037 AT END OF TIME STEP  326, STRESS PERIOD    1

 DRAWDOWN WILL BE SAVED ON UNIT   38 AT END OF TIME STEP  326, STRESS PERIOD    1
1
  VOLUMETRIC BUDGET FOR ENTIRE MODEL AT END OF TIME STEP  326, STRESS PERIOD   1
  ------------------------------------------------------------------------------

     CUMULATIVE VOLUMES      L**3       RATES FOR THIS TIME STEP      L**3/T
     ------------------                 ------------------------

           IN:                                      IN:
           ---                                      ---
             STORAGE =    13255237.0000               STORAGE =       30782.2812
       CONSTANT HEAD =           0.0000         CONSTANT HEAD =           0.0000
       RIVER LEAKAGE =     1926420.2500         RIVER LEAKAGE =        5825.7446
            RECHARGE =    10435755.0000              RECHARGE =        3126.2222

            TOTAL IN =    25617412.0000              TOTAL IN =       39734.2500

          OUT:                                     OUT:
          ----                                     ----
             STORAGE =    10137898.0000               STORAGE =        3989.3799
       CONSTANT HEAD =           0.0000         CONSTANT HEAD =           0.0000
       RIVER LEAKAGE =    15460745.0000         RIVER LEAKAGE =       35737.9531
            RECHARGE =           0.0000              RECHARGE =           0.0000

           TOTAL OUT =    25598644.0000             TOTAL OUT =       39727.3320

            IN - OUT =       18768.0000              IN - OUT =           6.9180

 PERCENT DISCREPANCY =           0.07     PERCENT DISCREPANCY =           0.02






         TIME SUMMARY AT END OF TIME STEP  326 IN STRESS PERIOD    1
                    SECONDS     MINUTES      HOURS       DAYS        YEARS
                    -----------------------------------------------------------
   TIME STEP LENGTH  86400.      1440.0      24.000      1.0000     2.73785E-03
 STRESS PERIOD TIME 2.81664E+07 4.69440E+05  7824.0      326.00     0.89254    
         TOTAL TIME 2.81664E+07 4.69440E+05  7824.0      326.00     0.89254    
1
 
 SOLVING FOR HEAD 
                                                   Max.-Head-Change                        Max.-Flux-Residual
  Residual-Control   Outer-Iter.   Inner-Iter.     Column Row Layer    Max.-Head-Change    Column Row Layer    Max.-Flux-Residual            L2-New               L2-Old           Solver-Max-Delh
          0                 1           2            13    4     1      -0.1515189552E+02      26   14    1      -0.3919864349E+03      0.2129882288E+04      0.1092390994E+02     -0.1515189552E+02
          0                 2           2            13    4     1       0.1312592117E+01      16    3    1       0.1451502284E+04      0.1653718148E+04      0.2129882288E+04      0.1312592117E+01
          0                 3           2            11    3     1       0.9950866947E-01      16    3    1       0.7235763278E+02      0.8248173397E+02      0.1653718148E+04      0.9950866947E-01

    ------------------------------------------------
       NWT REQUIRED            3 OUTER ITERATIONS 
       AND A TOTAL OF          6 INNER ITERATIONS.
    ------------------------------------------------

 OUTPUT CONTROL FOR STRESS PERIOD    1   TIME STEP  327
    SAVE HEAD FOR ALL LAYERS
    SAVE DRAWDOWN FOR ALL LAYERS
    SAVE BUDGET
    PRINT BUDGET
 UBDSV1 SAVING "         STORAGE" ON UNIT   9 AT TIME STEP327, STRESS PERIOD   1
 UBDSV2 SAVING "   CONSTANT HEAD" ON UNIT   9 AT TIME STEP327, STRESS PERIOD   1
 UBDSV1 SAVING "FLOW RIGHT FACE " ON UNIT   9 AT TIME STEP327, STRESS PERIOD   1
 UBDSV1 SAVING "FLOW FRONT FACE " ON UNIT   9 AT TIME STEP327, STRESS PERIOD   1
 UBDSV4 SAVING "   RIVER LEAKAGE" ON UNIT   9 AT TIME STEP327, STRESS PERIOD   1
 UBDSV3 SAVING "        RECHARGE" ON UNIT   9 AT TIME STEP327, STRESS PERIOD   1

 HEAD WILL BE SAVED ON UNIT 5037 AT END OF TIME STEP  327, STRESS PERIOD    1

 DRAWDOWN WILL BE SAVED ON UNIT   38 AT END OF TIME STEP  327, STRESS PERIOD    1
1
  VOLUMETRIC BUDGET FOR ENTIRE MODEL AT END OF TIME STEP  327, STRESS PERIOD   1
  ------------------------------------------------------------------------------

     CUMULATIVE VOLUMES      L**3       RATES FOR THIS TIME STEP      L**3/T
     ------------------                 ------------------------

           IN:                                      IN:
           ---                                      ---
             STORAGE =    13285741.0000               STORAGE =       30504.2363
       CONSTANT HEAD =           0.0000         CONSTANT HEAD =           0.0000
       RIVER LEAKAGE =     1932284.0000         RIVER LEAKAGE =        5863.7358
            RECHARGE =    10438248.0000              RECHARGE =        2493.0583

            TOTAL IN =    25656272.0000              TOTAL IN =       38861.0312

          OUT:                                     OUT:
          ----                                     ----
             STORAGE =    10141566.0000               STORAGE =        3668.1970
       CONSTANT HEAD =           0.0000         CONSTANT HEAD =           0.0000
       RIVER LEAKAGE =    15495925.0000         RIVER LEAKAGE =       35180.4922
            RECHARGE =           0.0000              RECHARGE =           0.0000

           TOTAL OUT =    25637492.0000             TOTAL OUT =       38848.6875

            IN - OUT =       18780.0000              IN - OUT =          12.3438

 PERCENT DISCREPANCY =           0.07     PERCENT DISCREPANCY =           0.03






         TIME SUMMARY AT END OF TIME STEP  327 IN STRESS PERIOD    1
                    SECONDS     MINUTES      HOURS       DAYS        YEARS
                    -----------------------------------------------------------
   TIME STEP LENGTH  86400.      1440.0      24.000      1.0000     2.73785E-03
 STRESS PERIOD TIME 2.82528E+07 4.70880E+05  7848.0      327.00     0.89528    
         TOTAL TIME 2.82528E+07 4.70880E+05  7848.0      327.00     0.89528    
1
 
 SOLVING FOR HEAD 
                                                   Max.-Head-Change                        Max.-Flux-Residual
  Residual-Control   Outer-Iter.   Inner-Iter.     Column Row Layer    Max.-Head-Change    Column Row Layer    Max.-Flux-Residual            L2-New               L2-Old           Solver-Max-Delh
          0                 1           2            13    4     1       0.5562004790E+03      13    9    1       0.2902416152E+04      0.1140558018E+05      0.8248173397E+02      0.5562004790E+03
          0                 2           2            11    6     1       0.5820109377E+03      10    6    1      -0.7620814333E+03      0.1993751055E+04      0.1140558018E+05      0.5820109377E+03
          0                 3           2            11    6     1      -0.5026454408E+02      11    6    1      -0.6500520443E+02      0.1447463553E+03      0.1993751055E+04     -0.5026454408E+02
          0                 4           2            11    6     1      -0.2513252385E+01      11    6    1      -0.3250258809E+01      0.7250901897E+01      0.1447463553E+03     -0.2513252385E+01
          0                 5           2            11    6     1      -0.1256387456E+00      11    6    1      -0.1624803673E+00      0.3624610231E+00      0.7250901897E+01     -0.1256387456E+00
          0                 6           2            11    6     1      -0.6279487418E-02      11    6    1      -0.8120765226E-02      0.1811752309E-01      0.3624610231E+00     -0.6279487418E-02

    ------------------------------------------------
       NWT REQUIRED            6 OUTER ITERATIONS 
       AND A TOTAL OF         12 INNER ITERATIONS.
    ------------------------------------------------

 OUTPUT CONTROL FOR STRESS PERIOD    1   TIME STEP  328
    SAVE HEAD FOR ALL LAYERS
    SAVE DRAWDOWN FOR ALL LAYERS
    SAVE BUDGET
    PRINT BUDGET
 UBDSV1 SAVING "         STORAGE" ON UNIT   9 AT TIME STEP328, STRESS PERIOD   1
 UBDSV2 SAVING "   CONSTANT HEAD" ON UNIT   9 AT TIME STEP328, STRESS PERIOD   1
 UBDSV1 SAVING "FLOW RIGHT FACE " ON UNIT   9 AT TIME STEP328, STRESS PERIOD   1
 UBDSV1 SAVING "FLOW FRONT FACE " ON UNIT   9 AT TIME STEP328, STRESS PERIOD   1
 UBDSV4 SAVING "   RIVER LEAKAGE" ON UNIT   9 AT TIME STEP328, STRESS PERIOD   1
 UBDSV3 SAVING "        RECHARGE" ON UNIT   9 AT TIME STEP328, STRESS PERIOD   1

 HEAD WILL BE SAVED ON UNIT 5037 AT END OF TIME STEP  328, STRESS PERIOD    1

 DRAWDOWN WILL BE SAVED ON UNIT   38 AT END OF TIME STEP  328, STRESS PERIOD    1
1
  VOLUMETRIC BUDGET FOR ENTIRE MODEL AT END OF TIME STEP  328, STRESS PERIOD   1
  ------------------------------------------------------------------------------

     CUMULATIVE VOLUMES      L**3       RATES FOR THIS TIME STEP      L**3/T
     ------------------                 ------------------------

           IN:                                      IN:
           ---                                      ---
             STORAGE =    13301886.0000               STORAGE =       16145.0723
       CONSTANT HEAD =           0.0000         CONSTANT HEAD =           0.0000
       RIVER LEAKAGE =     1936617.2500         RIVER LEAKAGE =        4333.2627
            RECHARGE =    10580490.0000              RECHARGE =      142242.2031

            TOTAL IN =    25818992.0000              TOTAL IN =      162720.5312

          OUT:                                     OUT:
          ----                                     ----
             STORAGE =    10217813.0000               STORAGE =       76246.5859
       CONSTANT HEAD =           0.0000         CONSTANT HEAD =           0.0000
       RIVER LEAKAGE =    15582399.0000         RIVER LEAKAGE =       86473.9531
            RECHARGE =           0.0000              RECHARGE =           0.0000

           TOTAL OUT =    25800212.0000             TOTAL OUT =      162720.5312

            IN - OUT =       18780.0000              IN - OUT =           0.0000

 PERCENT DISCREPANCY =           0.07     PERCENT DISCREPANCY =           0.00






         TIME SUMMARY AT END OF TIME STEP  328 IN STRESS PERIOD    1
                    SECONDS     MINUTES      HOURS       DAYS        YEARS
                    -----------------------------------------------------------
   TIME STEP LENGTH  86400.      1440.0      24.000      1.0000     2.73785E-03
 STRESS PERIOD TIME 2.83392E+07 4.72320E+05  7872.0      328.00     0.89802    
         TOTAL TIME 2.83392E+07 4.72320E+05  7872.0      328.00     0.89802    
1
 
 SOLVING FOR HEAD 
                                                   Max.-Head-Change                        Max.-Flux-Residual
  Residual-Control   Outer-Iter.   Inner-Iter.     Column Row Layer    Max.-Head-Change    Column Row Layer    Max.-Flux-Residual            L2-New               L2-Old           Solver-Max-Delh
          0                 1           2            11    6     1       0.5392114325E+03      36   13    1       0.2019074329E+04      0.1349348169E+05      0.1811752309E-01      0.5392114325E+03
          0                 2           2            11    6     1      -0.4656847439E+02       9    4    1       0.9560184446E+03      0.1666678789E+04      0.1349348169E+05     -0.4656847439E+02
          0                 3           2            11    6     1      -0.2328395435E+01       9    4    1      -0.9515288672E+02      0.1190569013E+03      0.1666678789E+04     -0.2328395435E+01
          0                 4           2            11    6     1      -0.1163976540E+00       9    4    1      -0.4757643422E+01      0.5953533284E+01      0.1190569013E+03     -0.1163976540E+00
          0                 5           2            11    6     1      -0.5817613036E-02       9    4    1      -0.2378345490E+00      0.3166861802E+00      0.5953533284E+01     -0.5817613036E-02

    ------------------------------------------------
       NWT REQUIRED            5 OUTER ITERATIONS 
       AND A TOTAL OF         10 INNER ITERATIONS.
    ------------------------------------------------

 OUTPUT CONTROL FOR STRESS PERIOD    1   TIME STEP  329
    SAVE HEAD FOR ALL LAYERS
    SAVE DRAWDOWN FOR ALL LAYERS
    SAVE BUDGET
    PRINT BUDGET
 UBDSV1 SAVING "         STORAGE" ON UNIT   9 AT TIME STEP329, STRESS PERIOD   1
 UBDSV2 SAVING "   CONSTANT HEAD" ON UNIT   9 AT TIME STEP329, STRESS PERIOD   1
 UBDSV1 SAVING "FLOW RIGHT FACE " ON UNIT   9 AT TIME STEP329, STRESS PERIOD   1
 UBDSV1 SAVING "FLOW FRONT FACE " ON UNIT   9 AT TIME STEP329, STRESS PERIOD   1
 UBDSV4 SAVING "   RIVER LEAKAGE" ON UNIT   9 AT TIME STEP329, STRESS PERIOD   1
 UBDSV3 SAVING "        RECHARGE" ON UNIT   9 AT TIME STEP329, STRESS PERIOD   1

 HEAD WILL BE SAVED ON UNIT 5037 AT END OF TIME STEP  329, STRESS PERIOD    1

 DRAWDOWN WILL BE SAVED ON UNIT   38 AT END OF TIME STEP  329, STRESS PERIOD    1
1
  VOLUMETRIC BUDGET FOR ENTIRE MODEL AT END OF TIME STEP  329, STRESS PERIOD   1
  ------------------------------------------------------------------------------

     CUMULATIVE VOLUMES      L**3       RATES FOR THIS TIME STEP      L**3/T
     ------------------                 ------------------------

           IN:                                      IN:
           ---                                      ---
             STORAGE =    13310875.0000               STORAGE =        8989.3096
       CONSTANT HEAD =           0.0000         CONSTANT HEAD =           0.0000
       RIVER LEAKAGE =     1945028.7500         RIVER LEAKAGE =        8411.4980
            RECHARGE =    10737613.0000              RECHARGE =      157123.2812

            TOTAL IN =    25993516.0000              TOTAL IN =      174524.0938

          OUT:                                     OUT:
          ----                                     ----
             STORAGE =    10317264.0000               STORAGE =       99450.9766
       CONSTANT HEAD =           0.0000         CONSTANT HEAD =           0.0000
       RIVER LEAKAGE =    15657472.0000         RIVER LEAKAGE =       75073.1406
            RECHARGE =           0.0000              RECHARGE =           0.0000

           TOTAL OUT =    25974736.0000             TOTAL OUT =      174524.1250

            IN - OUT =       18780.0000              IN - OUT =      -3.1250E-02

 PERCENT DISCREPANCY =           0.07     PERCENT DISCREPANCY =          -0.00






         TIME SUMMARY AT END OF TIME STEP  329 IN STRESS PERIOD    1
                    SECONDS     MINUTES      HOURS       DAYS        YEARS
                    -----------------------------------------------------------
   TIME STEP LENGTH  86400.      1440.0      24.000      1.0000     2.73785E-03
 STRESS PERIOD TIME 2.84256E+07 4.73760E+05  7896.0      329.00     0.90075    
         TOTAL TIME 2.84256E+07 4.73760E+05  7896.0      329.00     0.90075    
1
 
 SOLVING FOR HEAD 
                                                   Max.-Head-Change                        Max.-Flux-Residual
  Residual-Control   Outer-Iter.   Inner-Iter.     Column Row Layer    Max.-Head-Change    Column Row Layer    Max.-Flux-Residual            L2-New               L2-Old           Solver-Max-Delh
          0                 1           2            11    6     1       0.3333616773E+04      34   17    1       0.4974645516E+04      0.4669731524E+05      0.3166861802E+00      0.3333616773E+04
          0                 2           2            11    6     1      -0.2833779160E+03      32   19    1      -0.4401379908E+04      0.9828094477E+04      0.4669731524E+05     -0.2833779160E+03
          0                 3           2            11    6     1      -0.1417694533E+02      11    5    1      -0.3991047049E+03      0.7590009706E+03      0.9828094477E+04     -0.1417694533E+02
          0                 4           2            11    6     1      -0.7008050119E+00      11    5    1      -0.1265059051E+02      0.3530258881E+02      0.7590009706E+03     -0.7008050119E+00
          0                 5           2            11    6     1      -0.3502658543E-01      11    5    1      -0.6324069893E+00      0.1799409157E+01      0.3530258881E+02     -0.3502658543E-01

    ------------------------------------------------
       NWT REQUIRED            5 OUTER ITERATIONS 
       AND A TOTAL OF         10 INNER ITERATIONS.
    ------------------------------------------------

 OUTPUT CONTROL FOR STRESS PERIOD    1   TIME STEP  330
    SAVE HEAD FOR ALL LAYERS
    SAVE DRAWDOWN FOR ALL LAYERS
    SAVE BUDGET
    PRINT BUDGET
 UBDSV1 SAVING "         STORAGE" ON UNIT   9 AT TIME STEP330, STRESS PERIOD   1
 UBDSV2 SAVING "   CONSTANT HEAD" ON UNIT   9 AT TIME STEP330, STRESS PERIOD   1
 UBDSV1 SAVING "FLOW RIGHT FACE " ON UNIT   9 AT TIME STEP330, STRESS PERIOD   1
 UBDSV1 SAVING "FLOW FRONT FACE " ON UNIT   9 AT TIME STEP330, STRESS PERIOD   1
 UBDSV4 SAVING "   RIVER LEAKAGE" ON UNIT   9 AT TIME STEP330, STRESS PERIOD   1
 UBDSV3 SAVING "        RECHARGE" ON UNIT   9 AT TIME STEP330, STRESS PERIOD   1

 HEAD WILL BE SAVED ON UNIT 5037 AT END OF TIME STEP  330, STRESS PERIOD    1

 DRAWDOWN WILL BE SAVED ON UNIT   38 AT END OF TIME STEP  330, STRESS PERIOD    1
1
  VOLUMETRIC BUDGET FOR ENTIRE MODEL AT END OF TIME STEP  330, STRESS PERIOD   1
  ------------------------------------------------------------------------------

     CUMULATIVE VOLUMES      L**3       RATES FOR THIS TIME STEP      L**3/T
     ------------------                 ------------------------

           IN:                                      IN:
           ---                                      ---
             STORAGE =    13316447.0000               STORAGE =        5572.1709
       CONSTANT HEAD =           0.0000         CONSTANT HEAD =           0.0000
       RIVER LEAKAGE =     1946709.5000         RIVER LEAKAGE =        1680.6962
            RECHARGE =    11659156.0000              RECHARGE =      921543.5000

            TOTAL IN =    26922312.0000              TOTAL IN =      928796.3750

          OUT:                                     OUT:
          ----                                     ----
             STORAGE =    10897227.0000               STORAGE =      579962.7500
       CONSTANT HEAD =           0.0000         CONSTANT HEAD =           0.0000
       RIVER LEAKAGE =    16006306.0000         RIVER LEAKAGE =      348834.2188
            RECHARGE =           0.0000              RECHARGE =           0.0000

           TOTAL OUT =    26903532.0000             TOTAL OUT =      928797.0000

            IN - OUT =       18780.0000              IN - OUT =          -0.6250

 PERCENT DISCREPANCY =           0.07     PERCENT DISCREPANCY =          -0.00






         TIME SUMMARY AT END OF TIME STEP  330 IN STRESS PERIOD    1
                    SECONDS     MINUTES      HOURS       DAYS        YEARS
                    -----------------------------------------------------------
   TIME STEP LENGTH  86400.      1440.0      24.000      1.0000     2.73785E-03
 STRESS PERIOD TIME 2.85120E+07 4.75200E+05  7920.0      330.00     0.90349    
         TOTAL TIME 2.85120E+07 4.75200E+05  7920.0      330.00     0.90349    
1
 
 SOLVING FOR HEAD 
                                                   Max.-Head-Change                        Max.-Flux-Residual
  Residual-Control   Outer-Iter.   Inner-Iter.     Column Row Layer    Max.-Head-Change    Column Row Layer    Max.-Flux-Residual            L2-New               L2-Old           Solver-Max-Delh
          0                 1           2            11    6     1       0.8129505302E+04      37   16    1       0.1299462237E+05      0.1244901012E+06      0.1799409157E+01      0.8129505302E+04
          0                 2           2            11    6     1      -0.6997780633E+03      37   16    1       0.1405855655E+05      0.2643136018E+05      0.1244901012E+06     -0.6997780633E+03
          0                 3           2            11    6     1      -0.3491808127E+02      31   16    1       0.9514513733E+04      0.9782444419E+04      0.2643136018E+05     -0.3491808127E+02
          0                 4           2            11    6     1      -0.1745572374E+01      31   16    1       0.1682482774E+04      0.1685887172E+04      0.9782444419E+04     -0.1745572374E+01
          0                 5           2            11    6     1      -0.8724458140E-01      31   16    1       0.2984259213E+03      0.2984760761E+03      0.1685887172E+04     -0.8724458140E-01

    ------------------------------------------------
       NWT REQUIRED            5 OUTER ITERATIONS 
       AND A TOTAL OF         10 INNER ITERATIONS.
    ------------------------------------------------

 OUTPUT CONTROL FOR STRESS PERIOD    1   TIME STEP  331
    SAVE HEAD FOR ALL LAYERS
    SAVE DRAWDOWN FOR ALL LAYERS
    SAVE BUDGET
    PRINT BUDGET
 UBDSV1 SAVING "         STORAGE" ON UNIT   9 AT TIME STEP331, STRESS PERIOD   1
 UBDSV2 SAVING "   CONSTANT HEAD" ON UNIT   9 AT TIME STEP331, STRESS PERIOD   1
 UBDSV1 SAVING "FLOW RIGHT FACE " ON UNIT   9 AT TIME STEP331, STRESS PERIOD   1
 UBDSV1 SAVING "FLOW FRONT FACE " ON UNIT   9 AT TIME STEP331, STRESS PERIOD   1
 UBDSV4 SAVING "   RIVER LEAKAGE" ON UNIT   9 AT TIME STEP331, STRESS PERIOD   1
 UBDSV3 SAVING "        RECHARGE" ON UNIT   9 AT TIME STEP331, STRESS PERIOD   1

 HEAD WILL BE SAVED ON UNIT 5037 AT END OF TIME STEP  331, STRESS PERIOD    1

 DRAWDOWN WILL BE SAVED ON UNIT   38 AT END OF TIME STEP  331, STRESS PERIOD    1
1
  VOLUMETRIC BUDGET FOR ENTIRE MODEL AT END OF TIME STEP  331, STRESS PERIOD   1
  ------------------------------------------------------------------------------

     CUMULATIVE VOLUMES      L**3       RATES FOR THIS TIME STEP      L**3/T
     ------------------                 ------------------------

           IN:                                      IN:
           ---                                      ---
             STORAGE =    13321249.0000               STORAGE =        4801.9321
       CONSTANT HEAD =           0.0000         CONSTANT HEAD =           0.0000
       RIVER LEAKAGE =     1949527.2500         RIVER LEAKAGE =        2817.7246
            RECHARGE =    14089738.0000              RECHARGE =     2430582.0000

            TOTAL IN =    29360514.0000              TOTAL IN =     2438201.7500

          OUT:                                     OUT:
          ----                                     ----
             STORAGE =    12445229.0000               STORAGE =     1548001.7500
       CONSTANT HEAD =           0.0000         CONSTANT HEAD =           0.0000
       RIVER LEAKAGE =    16896456.0000         RIVER LEAKAGE =      890149.1250
            RECHARGE =           0.0000              RECHARGE =           0.0000

           TOTAL OUT =    29341684.0000             TOTAL OUT =     2438151.0000

            IN - OUT =       18830.0000              IN - OUT =          50.7500

 PERCENT DISCREPANCY =           0.06     PERCENT DISCREPANCY =           0.00






         TIME SUMMARY AT END OF TIME STEP  331 IN STRESS PERIOD    1
                    SECONDS     MINUTES      HOURS       DAYS        YEARS
                    -----------------------------------------------------------
   TIME STEP LENGTH  86400.      1440.0      24.000      1.0000     2.73785E-03
 STRESS PERIOD TIME 2.85984E+07 4.76640E+05  7944.0      331.00     0.90623    
         TOTAL TIME 2.85984E+07 4.76640E+05  7944.0      331.00     0.90623    
1
 
 SOLVING FOR HEAD 
                                                   Max.-Head-Change                        Max.-Flux-Residual
  Residual-Control   Outer-Iter.   Inner-Iter.     Column Row Layer    Max.-Head-Change    Column Row Layer    Max.-Flux-Residual            L2-New               L2-Old           Solver-Max-Delh
          0                 1           2            11    6     1       0.1272563041E+04      29   17    1       0.9193109692E+04      0.6628623265E+05      0.5295944795E+02      0.1272563041E+04
          0                 2           2            11    6     1      -0.1099031821E+03      29   17    1      -0.7365336648E+04      0.1171286640E+05      0.6628623265E+05     -0.1099031821E+03
          0                 3           2            11    6     1      -0.5495214224E+01      33   19    1      -0.4369225490E+03      0.7940959268E+03      0.1171286640E+05     -0.5495214224E+01
          0                 4           2            11    6     1      -0.2747085116E+00      33   19    1      -0.2184616013E+02      0.3975377155E+02      0.7940959268E+03     -0.2747085116E+00
          0                 5           2            11    6     1      -0.1373006897E-01      33   19    1      -0.1092173543E+01      0.1989551008E+01      0.3975377155E+02     -0.1373006897E-01

    ------------------------------------------------
       NWT REQUIRED            5 OUTER ITERATIONS 
       AND A TOTAL OF         10 INNER ITERATIONS.
    ------------------------------------------------

 OUTPUT CONTROL FOR STRESS PERIOD    1   TIME STEP  332
    SAVE HEAD FOR ALL LAYERS
    SAVE DRAWDOWN FOR ALL LAYERS
    SAVE BUDGET
    PRINT BUDGET
 UBDSV1 SAVING "         STORAGE" ON UNIT   9 AT TIME STEP332, STRESS PERIOD   1
 UBDSV2 SAVING "   CONSTANT HEAD" ON UNIT   9 AT TIME STEP332, STRESS PERIOD   1
 UBDSV1 SAVING "FLOW RIGHT FACE " ON UNIT   9 AT TIME STEP332, STRESS PERIOD   1
 UBDSV1 SAVING "FLOW FRONT FACE " ON UNIT   9 AT TIME STEP332, STRESS PERIOD   1
 UBDSV4 SAVING "   RIVER LEAKAGE" ON UNIT   9 AT TIME STEP332, STRESS PERIOD   1
 UBDSV3 SAVING "        RECHARGE" ON UNIT   9 AT TIME STEP332, STRESS PERIOD   1

 HEAD WILL BE SAVED ON UNIT 5037 AT END OF TIME STEP  332, STRESS PERIOD    1

 DRAWDOWN WILL BE SAVED ON UNIT   38 AT END OF TIME STEP  332, STRESS PERIOD    1
1
  VOLUMETRIC BUDGET FOR ENTIRE MODEL AT END OF TIME STEP  332, STRESS PERIOD   1
  ------------------------------------------------------------------------------

     CUMULATIVE VOLUMES      L**3       RATES FOR THIS TIME STEP      L**3/T
     ------------------                 ------------------------

           IN:                                      IN:
           ---                                      ---
             STORAGE =    13326045.0000               STORAGE =        4795.7871
       CONSTANT HEAD =           0.0000         CONSTANT HEAD =           0.0000
       RIVER LEAKAGE =     1972140.6250         RIVER LEAKAGE =       22613.3535
            RECHARGE =    15455362.0000              RECHARGE =     1365623.7500

            TOTAL IN =    30753548.0000              TOTAL IN =     1393032.8750

          OUT:                                     OUT:
          ----                                     ----
             STORAGE =    13274282.0000               STORAGE =      829052.8125
       CONSTANT HEAD =           0.0000         CONSTANT HEAD =           0.0000
       RIVER LEAKAGE =    17460436.0000         RIVER LEAKAGE =      563980.9375
            RECHARGE =           0.0000              RECHARGE =           0.0000

           TOTAL OUT =    30734718.0000             TOTAL OUT =     1393033.7500

            IN - OUT =       18830.0000              IN - OUT =          -0.8750

 PERCENT DISCREPANCY =           0.06     PERCENT DISCREPANCY =          -0.00






         TIME SUMMARY AT END OF TIME STEP  332 IN STRESS PERIOD    1
                    SECONDS     MINUTES      HOURS       DAYS        YEARS
                    -----------------------------------------------------------
   TIME STEP LENGTH  86400.      1440.0      24.000      1.0000     2.73785E-03
 STRESS PERIOD TIME 2.86848E+07 4.78080E+05  7968.0      332.00     0.90897    
         TOTAL TIME 2.86848E+07 4.78080E+05  7968.0      332.00     0.90897    
1
 
 SOLVING FOR HEAD 
                                                   Max.-Head-Change                        Max.-Flux-Residual
  Residual-Control   Outer-Iter.   Inner-Iter.     Column Row Layer    Max.-Head-Change    Column Row Layer    Max.-Flux-Residual            L2-New               L2-Old           Solver-Max-Delh
          0                 1           2            11    6     1      -0.1446012517E+04      17    6    1      -0.9747232133E+04      0.6256324358E+05      0.1989551008E+01     -0.1446012517E+04
          0                 2           2            11    6     1       0.1248829009E+03      27   23    1       0.1576463794E+04      0.6622034268E+04      0.6256324358E+05      0.1248829009E+03
          0                 3           2            11    6     1       0.6244207573E+01      27   23    1      -0.1576463817E+03      0.3801595015E+03      0.6622034268E+04      0.6244207573E+01
          0                 4           2            11    6     1       0.3121510640E+00      27   23    1      -0.7882315093E+01      0.1900540753E+02      0.3801595015E+03      0.3121510640E+00
          0                 5           2            11    6     1       0.1560146649E-01      27   23    1      -0.3940367318E+00      0.9499501329E+00      0.1900540753E+02      0.1560146649E-01

    ------------------------------------------------
       NWT REQUIRED            5 OUTER ITERATIONS 
       AND A TOTAL OF         10 INNER ITERATIONS.
    ------------------------------------------------

 OUTPUT CONTROL FOR STRESS PERIOD    1   TIME STEP  333
    SAVE HEAD FOR ALL LAYERS
    SAVE DRAWDOWN FOR ALL LAYERS
    SAVE BUDGET
    PRINT BUDGET
 UBDSV1 SAVING "         STORAGE" ON UNIT   9 AT TIME STEP333, STRESS PERIOD   1
 UBDSV2 SAVING "   CONSTANT HEAD" ON UNIT   9 AT TIME STEP333, STRESS PERIOD   1
 UBDSV1 SAVING "FLOW RIGHT FACE " ON UNIT   9 AT TIME STEP333, STRESS PERIOD   1
 UBDSV1 SAVING "FLOW FRONT FACE " ON UNIT   9 AT TIME STEP333, STRESS PERIOD   1
 UBDSV4 SAVING "   RIVER LEAKAGE" ON UNIT   9 AT TIME STEP333, STRESS PERIOD   1
 UBDSV3 SAVING "        RECHARGE" ON UNIT   9 AT TIME STEP333, STRESS PERIOD   1

 HEAD WILL BE SAVED ON UNIT 5037 AT END OF TIME STEP  333, STRESS PERIOD    1

 DRAWDOWN WILL BE SAVED ON UNIT   38 AT END OF TIME STEP  333, STRESS PERIOD    1
1
  VOLUMETRIC BUDGET FOR ENTIRE MODEL AT END OF TIME STEP  333, STRESS PERIOD   1
  ------------------------------------------------------------------------------

     CUMULATIVE VOLUMES      L**3       RATES FOR THIS TIME STEP      L**3/T
     ------------------                 ------------------------

           IN:                                      IN:
           ---                                      ---
             STORAGE =    13495578.0000               STORAGE =      169532.7344
       CONSTANT HEAD =           0.0000         CONSTANT HEAD =           0.0000
       RIVER LEAKAGE =     1972140.6250         RIVER LEAKAGE =           0.0000
            RECHARGE =    16197742.0000              RECHARGE =      742380.3125

            TOTAL IN =    31665460.0000              TOTAL IN =      911913.0625

          OUT:                                     OUT:
          ----                                     ----
             STORAGE =    13634395.0000               STORAGE =      360113.3750
       CONSTANT HEAD =           0.0000         CONSTANT HEAD =           0.0000
       RIVER LEAKAGE =    18012236.0000         RIVER LEAKAGE =      551799.5000
            RECHARGE =           0.0000              RECHARGE =           0.0000

           TOTAL OUT =    31646632.0000             TOTAL OUT =      911912.8750

            IN - OUT =       18828.0000              IN - OUT =           0.1875

 PERCENT DISCREPANCY =           0.06     PERCENT DISCREPANCY =           0.00






         TIME SUMMARY AT END OF TIME STEP  333 IN STRESS PERIOD    1
                    SECONDS     MINUTES      HOURS       DAYS        YEARS
                    -----------------------------------------------------------
   TIME STEP LENGTH  86400.      1440.0      24.000      1.0000     2.73785E-03
 STRESS PERIOD TIME 2.87712E+07 4.79520E+05  7992.0      333.00     0.91170    
         TOTAL TIME 2.87712E+07 4.79520E+05  7992.0      333.00     0.91170    
1
 
 SOLVING FOR HEAD 
                                                   Max.-Head-Change                        Max.-Flux-Residual
  Residual-Control   Outer-Iter.   Inner-Iter.     Column Row Layer    Max.-Head-Change    Column Row Layer    Max.-Flux-Residual            L2-New               L2-Old           Solver-Max-Delh
          0                 1           2            11    6     1      -0.1841242803E+04      26   14    1       0.5295162266E+04      0.3829988051E+05      0.9499501329E+00     -0.1841242803E+04
          0                 2           2            11    6     1       0.1590164280E+03      20    2    1       0.2584328866E+04      0.4707314616E+04      0.3829988051E+05      0.1590164280E+03
          0                 3           2            11    6     1       0.7950901043E+01      20    2    1      -0.2355055736E+03      0.3225792034E+03      0.4707314616E+04      0.7950901043E+01
          0                 4           2            11    6     1       0.3974695255E+00      20    2    1      -0.1169947697E+02      0.1603401447E+02      0.3225792034E+03      0.3974695255E+00
          0                 5           2            11    6     1       0.1986572592E-01      20    2    1      -0.5848557258E+00      0.8018885266E+00      0.1603401447E+02      0.1986572592E-01

    ------------------------------------------------
       NWT REQUIRED            5 OUTER ITERATIONS 
       AND A TOTAL OF         10 INNER ITERATIONS.
    ------------------------------------------------

 OUTPUT CONTROL FOR STRESS PERIOD    1   TIME STEP  334
    SAVE HEAD FOR ALL LAYERS
    SAVE DRAWDOWN FOR ALL LAYERS
    SAVE BUDGET
    PRINT BUDGET
 UBDSV1 SAVING "         STORAGE" ON UNIT   9 AT TIME STEP334, STRESS PERIOD   1
 UBDSV2 SAVING "   CONSTANT HEAD" ON UNIT   9 AT TIME STEP334, STRESS PERIOD   1
 UBDSV1 SAVING "FLOW RIGHT FACE " ON UNIT   9 AT TIME STEP334, STRESS PERIOD   1
 UBDSV1 SAVING "FLOW FRONT FACE " ON UNIT   9 AT TIME STEP334, STRESS PERIOD   1
 UBDSV4 SAVING "   RIVER LEAKAGE" ON UNIT   9 AT TIME STEP334, STRESS PERIOD   1
 UBDSV3 SAVING "        RECHARGE" ON UNIT   9 AT TIME STEP334, STRESS PERIOD   1

 HEAD WILL BE SAVED ON UNIT 5037 AT END OF TIME STEP  334, STRESS PERIOD    1

 DRAWDOWN WILL BE SAVED ON UNIT   38 AT END OF TIME STEP  334, STRESS PERIOD    1
1
  VOLUMETRIC BUDGET FOR ENTIRE MODEL AT END OF TIME STEP  334, STRESS PERIOD   1
  ------------------------------------------------------------------------------

     CUMULATIVE VOLUMES      L**3       RATES FOR THIS TIME STEP      L**3/T
     ------------------                 ------------------------

           IN:                                      IN:
           ---                                      ---
             STORAGE =    13634170.0000               STORAGE =      138591.8906
       CONSTANT HEAD =           0.0000         CONSTANT HEAD =           0.0000
       RIVER LEAKAGE =     1972140.6250         RIVER LEAKAGE =           0.0000
            RECHARGE =    16705863.0000              RECHARGE =      508120.5312

            TOTAL IN =    32312174.0000              TOTAL IN =      646712.4375

          OUT:                                     OUT:
          ----                                     ----
             STORAGE =    13880625.0000               STORAGE =      246230.1875
       CONSTANT HEAD =           0.0000         CONSTANT HEAD =           0.0000
       RIVER LEAKAGE =    18412718.0000         RIVER LEAKAGE =      400482.1562
            RECHARGE =           0.0000              RECHARGE =           0.0000

           TOTAL OUT =    32293344.0000             TOTAL OUT =      646712.3750

            IN - OUT =       18830.0000              IN - OUT =       6.2500E-02

 PERCENT DISCREPANCY =           0.06     PERCENT DISCREPANCY =           0.00






         TIME SUMMARY AT END OF TIME STEP  334 IN STRESS PERIOD    1
                    SECONDS     MINUTES      HOURS       DAYS        YEARS
                    -----------------------------------------------------------
   TIME STEP LENGTH  86400.      1440.0      24.000      1.0000     2.73785E-03
 STRESS PERIOD TIME 2.88576E+07 4.80960E+05  8016.0      334.00     0.91444    
         TOTAL TIME 2.88576E+07 4.80960E+05  8016.0      334.00     0.91444    
1
 
 SOLVING FOR HEAD 
                                                   Max.-Head-Change                        Max.-Flux-Residual
  Residual-Control   Outer-Iter.   Inner-Iter.     Column Row Layer    Max.-Head-Change    Column Row Layer    Max.-Flux-Residual            L2-New               L2-Old           Solver-Max-Delh
          0                 1           2            11    6     1      -0.2136223436E+04      26   14    1       0.4295146564E+04      0.2979730477E+05      0.8018885266E+00     -0.2136223436E+04
          0                 2           2            11    6     1       0.1844920302E+03      36   20    1       0.6275880699E+03      0.3041191491E+04      0.2979730477E+05      0.1844920302E+03
          0                 3           2            11    6     1       0.9224693922E+01      36   20    1      -0.6534252724E+02      0.1636011773E+03      0.3041191491E+04      0.9224693922E+01
          0                 4           2            11    6     1       0.4611470695E+00      36   20    1      -0.3267116095E+01      0.8178729862E+01      0.1636011773E+03      0.4611470695E+00
          0                 5           2            11    6     1       0.2304836146E-01      36   20    1      -0.1633226203E+00      0.4087870200E+00      0.8178729862E+01      0.2304836146E-01

    ------------------------------------------------
       NWT REQUIRED            5 OUTER ITERATIONS 
       AND A TOTAL OF         10 INNER ITERATIONS.
    ------------------------------------------------

 OUTPUT CONTROL FOR STRESS PERIOD    1   TIME STEP  335
    SAVE HEAD FOR ALL LAYERS
    SAVE DRAWDOWN FOR ALL LAYERS
    SAVE BUDGET
    PRINT BUDGET
 UBDSV1 SAVING "         STORAGE" ON UNIT   9 AT TIME STEP335, STRESS PERIOD   1
 UBDSV2 SAVING "   CONSTANT HEAD" ON UNIT   9 AT TIME STEP335, STRESS PERIOD   1
 UBDSV1 SAVING "FLOW RIGHT FACE " ON UNIT   9 AT TIME STEP335, STRESS PERIOD   1
 UBDSV1 SAVING "FLOW FRONT FACE " ON UNIT   9 AT TIME STEP335, STRESS PERIOD   1
 UBDSV4 SAVING "   RIVER LEAKAGE" ON UNIT   9 AT TIME STEP335, STRESS PERIOD   1
 UBDSV3 SAVING "        RECHARGE" ON UNIT   9 AT TIME STEP335, STRESS PERIOD   1

 HEAD WILL BE SAVED ON UNIT 5037 AT END OF TIME STEP  335, STRESS PERIOD    1

 DRAWDOWN WILL BE SAVED ON UNIT   38 AT END OF TIME STEP  335, STRESS PERIOD    1
1
  VOLUMETRIC BUDGET FOR ENTIRE MODEL AT END OF TIME STEP  335, STRESS PERIOD   1
  ------------------------------------------------------------------------------

     CUMULATIVE VOLUMES      L**3       RATES FOR THIS TIME STEP      L**3/T
     ------------------                 ------------------------

           IN:                                      IN:
           ---                                      ---
             STORAGE =    13794643.0000               STORAGE =      160473.2344
       CONSTANT HEAD =           0.0000         CONSTANT HEAD =           0.0000
       RIVER LEAKAGE =     1972226.3750         RIVER LEAKAGE =          85.7436
            RECHARGE =    16989200.0000              RECHARGE =      283337.1250

            TOTAL IN =    32756068.0000              TOTAL IN =      443896.1250

          OUT:                                     OUT:
          ----                                     ----
             STORAGE =    14045512.0000               STORAGE =      164887.3594
       CONSTANT HEAD =           0.0000         CONSTANT HEAD =           0.0000
       RIVER LEAKAGE =    18691726.0000         RIVER LEAKAGE =      279008.6250
            RECHARGE =           0.0000              RECHARGE =           0.0000

           TOTAL OUT =    32737238.0000             TOTAL OUT =      443896.0000

            IN - OUT =       18830.0000              IN - OUT =           0.1250

 PERCENT DISCREPANCY =           0.06     PERCENT DISCREPANCY =           0.00






         TIME SUMMARY AT END OF TIME STEP  335 IN STRESS PERIOD    1
                    SECONDS     MINUTES      HOURS       DAYS        YEARS
                    -----------------------------------------------------------
   TIME STEP LENGTH  86400.      1440.0      24.000      1.0000     2.73785E-03
 STRESS PERIOD TIME 2.89440E+07 4.82400E+05  8040.0      335.00     0.91718    
         TOTAL TIME 2.89440E+07 4.82400E+05  8040.0      335.00     0.91718    
1
 
 SOLVING FOR HEAD 
                                                   Max.-Head-Change                        Max.-Flux-Residual
  Residual-Control   Outer-Iter.   Inner-Iter.     Column Row Layer    Max.-Head-Change    Column Row Layer    Max.-Flux-Residual            L2-New               L2-Old           Solver-Max-Delh
          0                 1           2            11    6     1      -0.1950963376E+04      21    2    1       0.3706863464E+04      0.2323425812E+05      0.4087870200E+00     -0.1950963376E+04
          0                 2           2            11    6     1       0.1684922976E+03      35   17    1       0.1411835233E+04      0.2727514843E+04      0.2323425812E+05      0.1684922976E+03
          0                 3           2            11    6     1       0.8424699286E+01      35   17    1      -0.1483495294E+03      0.1907178730E+03      0.2727514843E+04      0.8424699286E+01
          0                 4           2            11    6     1       0.4211549370E+00      35   17    1      -0.7417454766E+01      0.9535166660E+01      0.1907178730E+03      0.4211549370E+00
          0                 5           2            11    6     1       0.2104953465E-01      35   17    1      -0.3707974786E+00      0.4766260907E+00      0.9535166660E+01      0.2104953465E-01

    ------------------------------------------------
       NWT REQUIRED            5 OUTER ITERATIONS 
       AND A TOTAL OF         10 INNER ITERATIONS.
    ------------------------------------------------

 OUTPUT CONTROL FOR STRESS PERIOD    1   TIME STEP  336
    SAVE HEAD FOR ALL LAYERS
    SAVE DRAWDOWN FOR ALL LAYERS
    SAVE BUDGET
    PRINT BUDGET
 UBDSV1 SAVING "         STORAGE" ON UNIT   9 AT TIME STEP336, STRESS PERIOD   1
 UBDSV2 SAVING "   CONSTANT HEAD" ON UNIT   9 AT TIME STEP336, STRESS PERIOD   1
 UBDSV1 SAVING "FLOW RIGHT FACE " ON UNIT   9 AT TIME STEP336, STRESS PERIOD   1
 UBDSV1 SAVING "FLOW FRONT FACE " ON UNIT   9 AT TIME STEP336, STRESS PERIOD   1
 UBDSV4 SAVING "   RIVER LEAKAGE" ON UNIT   9 AT TIME STEP336, STRESS PERIOD   1
 UBDSV3 SAVING "        RECHARGE" ON UNIT   9 AT TIME STEP336, STRESS PERIOD   1

 HEAD WILL BE SAVED ON UNIT 5037 AT END OF TIME STEP  336, STRESS PERIOD    1

 DRAWDOWN WILL BE SAVED ON UNIT   38 AT END OF TIME STEP  336, STRESS PERIOD    1
1
  VOLUMETRIC BUDGET FOR ENTIRE MODEL AT END OF TIME STEP  336, STRESS PERIOD   1
  ------------------------------------------------------------------------------

     CUMULATIVE VOLUMES      L**3       RATES FOR THIS TIME STEP      L**3/T
     ------------------                 ------------------------

           IN:                                      IN:
           ---                                      ---
             STORAGE =    13956441.0000               STORAGE =      161798.1406
       CONSTANT HEAD =           0.0000         CONSTANT HEAD =           0.0000
       RIVER LEAKAGE =     1972824.2500         RIVER LEAKAGE =         597.8405
            RECHARGE =    17149412.0000              RECHARGE =      160212.1094

            TOTAL IN =    33078676.0000              TOTAL IN =      322608.0938

          OUT:                                     OUT:
          ----                                     ----
             STORAGE =    14168005.0000               STORAGE =      122493.4219
       CONSTANT HEAD =           0.0000         CONSTANT HEAD =           0.0000
       RIVER LEAKAGE =    18891840.0000         RIVER LEAKAGE =      200114.5781
            RECHARGE =           0.0000              RECHARGE =           0.0000

           TOTAL OUT =    33059844.0000             TOTAL OUT =      322608.0000

            IN - OUT =       18832.0000              IN - OUT =       9.3750E-02

 PERCENT DISCREPANCY =           0.06     PERCENT DISCREPANCY =           0.00






         TIME SUMMARY AT END OF TIME STEP  336 IN STRESS PERIOD    1
                    SECONDS     MINUTES      HOURS       DAYS        YEARS
                    -----------------------------------------------------------
   TIME STEP LENGTH  86400.      1440.0      24.000      1.0000     2.73785E-03
 STRESS PERIOD TIME 2.90304E+07 4.83840E+05  8064.0      336.00     0.91992    
         TOTAL TIME 2.90304E+07 4.83840E+05  8064.0      336.00     0.91992    
1
 
 SOLVING FOR HEAD 
                                                   Max.-Head-Change                        Max.-Flux-Residual
  Residual-Control   Outer-Iter.   Inner-Iter.     Column Row Layer    Max.-Head-Change    Column Row Layer    Max.-Flux-Residual            L2-New               L2-Old           Solver-Max-Delh
          0                 1           2            11    6     1      -0.1614476417E+04      21    2    1       0.3300550639E+04      0.1831617356E+05      0.4766260907E+00     -0.1614476417E+04
          0                 2           2            11    6     1       0.1394320593E+03      18    2    1       0.3781937200E+03      0.1867494289E+04      0.1831617356E+05      0.1394320593E+03
          0                 3           2            11    6     1       0.6971672862E+01       6    5    1       0.1217880280E+04      0.1221950508E+04      0.1867494289E+04      0.6971672862E+01
          0                 4           2            11    6     1       0.3485174183E+00       6    5    1       0.2161502613E+03      0.2162080190E+03      0.1221950508E+04      0.3485174183E+00
          0                 5           2            11    6     1       0.1741907509E-01       6    5    1       0.3836475757E+02      0.3836566175E+02      0.2162080190E+03      0.1741907509E-01

    ------------------------------------------------
       NWT REQUIRED            5 OUTER ITERATIONS 
       AND A TOTAL OF         10 INNER ITERATIONS.
    ------------------------------------------------

 OUTPUT CONTROL FOR STRESS PERIOD    1   TIME STEP  337
    SAVE HEAD FOR ALL LAYERS
    SAVE DRAWDOWN FOR ALL LAYERS
    SAVE BUDGET
    PRINT BUDGET
 UBDSV1 SAVING "         STORAGE" ON UNIT   9 AT TIME STEP337, STRESS PERIOD   1
 UBDSV2 SAVING "   CONSTANT HEAD" ON UNIT   9 AT TIME STEP337, STRESS PERIOD   1
 UBDSV1 SAVING "FLOW RIGHT FACE " ON UNIT   9 AT TIME STEP337, STRESS PERIOD   1
 UBDSV1 SAVING "FLOW FRONT FACE " ON UNIT   9 AT TIME STEP337, STRESS PERIOD   1
 UBDSV4 SAVING "   RIVER LEAKAGE" ON UNIT   9 AT TIME STEP337, STRESS PERIOD   1
 UBDSV3 SAVING "        RECHARGE" ON UNIT   9 AT TIME STEP337, STRESS PERIOD   1

 HEAD WILL BE SAVED ON UNIT 5037 AT END OF TIME STEP  337, STRESS PERIOD    1

 DRAWDOWN WILL BE SAVED ON UNIT   38 AT END OF TIME STEP  337, STRESS PERIOD    1
1
  VOLUMETRIC BUDGET FOR ENTIRE MODEL AT END OF TIME STEP  337, STRESS PERIOD   1
  ------------------------------------------------------------------------------

     CUMULATIVE VOLUMES      L**3       RATES FOR THIS TIME STEP      L**3/T
     ------------------                 ------------------------

           IN:                                      IN:
           ---                                      ---
             STORAGE =    14104349.0000               STORAGE =      147908.0156
       CONSTANT HEAD =           0.0000         CONSTANT HEAD =           0.0000
       RIVER LEAKAGE =     1974193.6250         RIVER LEAKAGE =        1369.3914
            RECHARGE =    17243144.0000              RECHARGE =       93732.9609

            TOTAL IN =    33321688.0000              TOTAL IN =      243010.3750

          OUT:                                     OUT:
          ----                                     ----
             STORAGE =    14264826.0000               STORAGE =       96821.1406
       CONSTANT HEAD =           0.0000         CONSTANT HEAD =           0.0000
       RIVER LEAKAGE =    19038022.0000         RIVER LEAKAGE =      146182.3906
            RECHARGE =           0.0000              RECHARGE =           0.0000

           TOTAL OUT =    33302848.0000             TOTAL OUT =      243003.5312

            IN - OUT =       18840.0000              IN - OUT =           6.8438

 PERCENT DISCREPANCY =           0.06     PERCENT DISCREPANCY =           0.00






         TIME SUMMARY AT END OF TIME STEP  337 IN STRESS PERIOD    1
                    SECONDS     MINUTES      HOURS       DAYS        YEARS
                    -----------------------------------------------------------
   TIME STEP LENGTH  86400.      1440.0      24.000      1.0000     2.73785E-03
 STRESS PERIOD TIME 2.91168E+07 4.85280E+05  8088.0      337.00     0.92266    
         TOTAL TIME 2.91168E+07 4.85280E+05  8088.0      337.00     0.92266    
1
 
 SOLVING FOR HEAD 
                                                   Max.-Head-Change                        Max.-Flux-Residual
  Residual-Control   Outer-Iter.   Inner-Iter.     Column Row Layer    Max.-Head-Change    Column Row Layer    Max.-Flux-Residual            L2-New               L2-Old           Solver-Max-Delh
          0                 1           2            11    6     1      -0.1268957508E+04      21    2    1       0.2953407065E+04      0.1655975627E+05      0.3836566175E+02     -0.1268957508E+04
          0                 2           2            11    6     1       0.1096151656E+03       6    5    1       0.1027550854E+04      0.1954414020E+04      0.1655975627E+05      0.1096151656E+03
          0                 3           2            11    6     1       0.5480813191E+01       6    5    1      -0.1069322571E+03      0.1360414241E+03      0.1954414020E+04      0.5480813191E+01
          0                 4           2            11    6     1       0.2739885966E+00       6    5    1      -0.5346602413E+01      0.6801559921E+01      0.1360414241E+03      0.2739885966E+00
          0                 5           2            11    6     1       0.1369408726E-01       6    5    1      -0.2672761327E+00      0.3399840014E+00      0.6801559921E+01      0.1369408726E-01

    ------------------------------------------------
       NWT REQUIRED            5 OUTER ITERATIONS 
       AND A TOTAL OF         10 INNER ITERATIONS.
    ------------------------------------------------

 OUTPUT CONTROL FOR STRESS PERIOD    1   TIME STEP  338
    SAVE HEAD FOR ALL LAYERS
    SAVE DRAWDOWN FOR ALL LAYERS
    SAVE BUDGET
    PRINT BUDGET
 UBDSV1 SAVING "         STORAGE" ON UNIT   9 AT TIME STEP338, STRESS PERIOD   1
 UBDSV2 SAVING "   CONSTANT HEAD" ON UNIT   9 AT TIME STEP338, STRESS PERIOD   1
 UBDSV1 SAVING "FLOW RIGHT FACE " ON UNIT   9 AT TIME STEP338, STRESS PERIOD   1
 UBDSV1 SAVING "FLOW FRONT FACE " ON UNIT   9 AT TIME STEP338, STRESS PERIOD   1
 UBDSV4 SAVING "   RIVER LEAKAGE" ON UNIT   9 AT TIME STEP338, STRESS PERIOD   1
 UBDSV3 SAVING "        RECHARGE" ON UNIT   9 AT TIME STEP338, STRESS PERIOD   1

 HEAD WILL BE SAVED ON UNIT 5037 AT END OF TIME STEP  338, STRESS PERIOD    1

 DRAWDOWN WILL BE SAVED ON UNIT   38 AT END OF TIME STEP  338, STRESS PERIOD    1
1
  VOLUMETRIC BUDGET FOR ENTIRE MODEL AT END OF TIME STEP  338, STRESS PERIOD   1
  ------------------------------------------------------------------------------

     CUMULATIVE VOLUMES      L**3       RATES FOR THIS TIME STEP      L**3/T
     ------------------                 ------------------------

           IN:                                      IN:
           ---                                      ---
             STORAGE =    14249659.0000               STORAGE =      145310.2344
       CONSTANT HEAD =           0.0000         CONSTANT HEAD =           0.0000
       RIVER LEAKAGE =     1975849.0000         RIVER LEAKAGE =        1655.3643
            RECHARGE =    17300730.0000              RECHARGE =       57585.8555

            TOTAL IN =    33526238.0000              TOTAL IN =      204551.4531

          OUT:                                     OUT:
          ----                                     ----
             STORAGE =    14344553.0000               STORAGE =       79727.1016
       CONSTANT HEAD =           0.0000         CONSTANT HEAD =           0.0000
       RIVER LEAKAGE =    19162846.0000         RIVER LEAKAGE =      124824.2812
            RECHARGE =           0.0000              RECHARGE =           0.0000

           TOTAL OUT =    33507400.0000             TOTAL OUT =      204551.3750

            IN - OUT =       18838.0000              IN - OUT =       7.8125E-02

 PERCENT DISCREPANCY =           0.06     PERCENT DISCREPANCY =           0.00






         TIME SUMMARY AT END OF TIME STEP  338 IN STRESS PERIOD    1
                    SECONDS     MINUTES      HOURS       DAYS        YEARS
                    -----------------------------------------------------------
   TIME STEP LENGTH  86400.      1440.0      24.000      1.0000     2.73785E-03
 STRESS PERIOD TIME 2.92032E+07 4.86720E+05  8112.0      338.00     0.92539    
         TOTAL TIME 2.92032E+07 4.86720E+05  8112.0      338.00     0.92539    
1
 
 SOLVING FOR HEAD 
                                                   Max.-Head-Change                        Max.-Flux-Residual
  Residual-Control   Outer-Iter.   Inner-Iter.     Column Row Layer    Max.-Head-Change    Column Row Layer    Max.-Flux-Residual            L2-New               L2-Old           Solver-Max-Delh
          0                 1           2            11    6     1      -0.9677871255E+03      21    2    1       0.2663109554E+04      0.1395429775E+05      0.3399840014E+00     -0.9677871255E+03
          0                 2           2            11    6     1       0.8358162157E+02      21    2    1      -0.2669769372E+03      0.1405964023E+04      0.1395429775E+05      0.8358162157E+02
          0                 3           2            11    6     1       0.4179122950E+01      27    3    1       0.1082000025E+04      0.1084488074E+04      0.1405964023E+04      0.4179122950E+01
          0                 4           2            11    6     1       0.2089164495E+00      27    3    1       0.1920966947E+03      0.1921336416E+03      0.1084488074E+04      0.2089164495E+00
          0                 5           2            11    6     1       0.1044174876E-01      27    3    1       0.3409878769E+02      0.3409973930E+02      0.1921336416E+03      0.1044174876E-01

    ------------------------------------------------
       NWT REQUIRED            5 OUTER ITERATIONS 
       AND A TOTAL OF         10 INNER ITERATIONS.
    ------------------------------------------------

 OUTPUT CONTROL FOR STRESS PERIOD    1   TIME STEP  339
    SAVE HEAD FOR ALL LAYERS
    SAVE DRAWDOWN FOR ALL LAYERS
    SAVE BUDGET
    PRINT BUDGET
 UBDSV1 SAVING "         STORAGE" ON UNIT   9 AT TIME STEP339, STRESS PERIOD   1
 UBDSV2 SAVING "   CONSTANT HEAD" ON UNIT   9 AT TIME STEP339, STRESS PERIOD   1
 UBDSV1 SAVING "FLOW RIGHT FACE " ON UNIT   9 AT TIME STEP339, STRESS PERIOD   1
 UBDSV1 SAVING "FLOW FRONT FACE " ON UNIT   9 AT TIME STEP339, STRESS PERIOD   1
 UBDSV4 SAVING "   RIVER LEAKAGE" ON UNIT   9 AT TIME STEP339, STRESS PERIOD   1
 UBDSV3 SAVING "        RECHARGE" ON UNIT   9 AT TIME STEP339, STRESS PERIOD   1

 HEAD WILL BE SAVED ON UNIT 5037 AT END OF TIME STEP  339, STRESS PERIOD    1

 DRAWDOWN WILL BE SAVED ON UNIT   38 AT END OF TIME STEP  339, STRESS PERIOD    1
1
  VOLUMETRIC BUDGET FOR ENTIRE MODEL AT END OF TIME STEP  339, STRESS PERIOD   1
  ------------------------------------------------------------------------------

     CUMULATIVE VOLUMES      L**3       RATES FOR THIS TIME STEP      L**3/T
     ------------------                 ------------------------

           IN:                                      IN:
           ---                                      ---
             STORAGE =    14377854.0000               STORAGE =      128195.3750
       CONSTANT HEAD =           0.0000         CONSTANT HEAD =           0.0000
       RIVER LEAKAGE =     1978519.5000         RIVER LEAKAGE =        2670.4500
            RECHARGE =    17338344.0000              RECHARGE =       37614.2695

            TOTAL IN =    33694720.0000              TOTAL IN =      168480.0938

          OUT:                                     OUT:
          ----                                     ----
             STORAGE =    14412505.0000               STORAGE =       67951.6562
       CONSTANT HEAD =           0.0000         CONSTANT HEAD =           0.0000
       RIVER LEAKAGE =    19263368.0000         RIVER LEAKAGE =      100522.3984
            RECHARGE =           0.0000              RECHARGE =           0.0000

           TOTAL OUT =    33675872.0000             TOTAL OUT =      168474.0625

            IN - OUT =       18848.0000              IN - OUT =           6.0312

 PERCENT DISCREPANCY =           0.06     PERCENT DISCREPANCY =           0.00






         TIME SUMMARY AT END OF TIME STEP  339 IN STRESS PERIOD    1
                    SECONDS     MINUTES      HOURS       DAYS        YEARS
                    -----------------------------------------------------------
   TIME STEP LENGTH  86400.      1440.0      24.000      1.0000     2.73785E-03
 STRESS PERIOD TIME 2.92896E+07 4.88160E+05  8136.0      339.00     0.92813    
         TOTAL TIME 2.92896E+07 4.88160E+05  8136.0      339.00     0.92813    
1
 
 SOLVING FOR HEAD 
                                                   Max.-Head-Change                        Max.-Flux-Residual
  Residual-Control   Outer-Iter.   Inner-Iter.     Column Row Layer    Max.-Head-Change    Column Row Layer    Max.-Flux-Residual            L2-New               L2-Old           Solver-Max-Delh
          0                 1           2            11    6     1      -0.7245251400E+03      16    2    1       0.2562421894E+04      0.1305895803E+05      0.3409973930E+02     -0.7245251400E+03
          0                 2           2            11    6     1       0.6257372183E+02      27    3    1       0.1419852886E+04      0.1956792073E+04      0.1305895803E+05      0.6257372183E+02
          0                 3           2            11    6     1       0.3127623783E+01      27    3    1      -0.1462026886E+03      0.1687435510E+03      0.1956792073E+04      0.3127623783E+01
          0                 4           2            11    6     1       0.1563514795E+00      27    3    1      -0.7310117796E+01      0.1035032786E+02      0.1687435510E+03      0.1563514795E+00
          0                 5           2            11    6     1       0.7814525238E-02      29   17    1      -0.1108676834E+01      0.1183003777E+01      0.1035032786E+02      0.7814525238E-02

    ------------------------------------------------
       NWT REQUIRED            5 OUTER ITERATIONS 
       AND A TOTAL OF         10 INNER ITERATIONS.
    ------------------------------------------------

 OUTPUT CONTROL FOR STRESS PERIOD    1   TIME STEP  340
    SAVE HEAD FOR ALL LAYERS
    SAVE DRAWDOWN FOR ALL LAYERS
    SAVE BUDGET
    PRINT BUDGET
 UBDSV1 SAVING "         STORAGE" ON UNIT   9 AT TIME STEP340, STRESS PERIOD   1
 UBDSV2 SAVING "   CONSTANT HEAD" ON UNIT   9 AT TIME STEP340, STRESS PERIOD   1
 UBDSV1 SAVING "FLOW RIGHT FACE " ON UNIT   9 AT TIME STEP340, STRESS PERIOD   1
 UBDSV1 SAVING "FLOW FRONT FACE " ON UNIT   9 AT TIME STEP340, STRESS PERIOD   1
 UBDSV4 SAVING "   RIVER LEAKAGE" ON UNIT   9 AT TIME STEP340, STRESS PERIOD   1
 UBDSV3 SAVING "        RECHARGE" ON UNIT   9 AT TIME STEP340, STRESS PERIOD   1

 HEAD WILL BE SAVED ON UNIT 5037 AT END OF TIME STEP  340, STRESS PERIOD    1

 DRAWDOWN WILL BE SAVED ON UNIT   38 AT END OF TIME STEP  340, STRESS PERIOD    1
1
  VOLUMETRIC BUDGET FOR ENTIRE MODEL AT END OF TIME STEP  340, STRESS PERIOD   1
  ------------------------------------------------------------------------------

     CUMULATIVE VOLUMES      L**3       RATES FOR THIS TIME STEP      L**3/T
     ------------------                 ------------------------

           IN:                                      IN:
           ---                                      ---
             STORAGE =    14503443.0000               STORAGE =      125588.8906
       CONSTANT HEAD =           0.0000         CONSTANT HEAD =           0.0000
       RIVER LEAKAGE =     1981061.1250         RIVER LEAKAGE =        2541.6350
            RECHARGE =    17364646.0000              RECHARGE =       26302.5898

            TOTAL IN =    33849152.0000              TOTAL IN =      154433.1094

          OUT:                                     OUT:
          ----                                     ----
             STORAGE =    14471700.0000               STORAGE =       59195.4805
       CONSTANT HEAD =           0.0000         CONSTANT HEAD =           0.0000
       RIVER LEAKAGE =    19358606.0000         RIVER LEAKAGE =       95237.7734
            RECHARGE =           0.0000              RECHARGE =           0.0000

           TOTAL OUT =    33830304.0000             TOTAL OUT =      154433.2500

            IN - OUT =       18848.0000              IN - OUT =          -0.1406

 PERCENT DISCREPANCY =           0.06     PERCENT DISCREPANCY =          -0.00






         TIME SUMMARY AT END OF TIME STEP  340 IN STRESS PERIOD    1
                    SECONDS     MINUTES      HOURS       DAYS        YEARS
                    -----------------------------------------------------------
   TIME STEP LENGTH  86400.      1440.0      24.000      1.0000     2.73785E-03
 STRESS PERIOD TIME 2.93760E+07 4.89600E+05  8160.0      340.00     0.93087    
         TOTAL TIME 2.93760E+07 4.89600E+05  8160.0      340.00     0.93087    
1
 
 SOLVING FOR HEAD 
                                                   Max.-Head-Change                        Max.-Flux-Residual
  Residual-Control   Outer-Iter.   Inner-Iter.     Column Row Layer    Max.-Head-Change    Column Row Layer    Max.-Flux-Residual            L2-New               L2-Old           Solver-Max-Delh
          0                 1           2            11    6     1      -0.5360779433E+03      16    2    1       0.2548968782E+04      0.1121070721E+05      0.1183003777E+01     -0.5360779433E+03
          0                 2           2            11    6     1       0.4628568593E+02      16    2    1      -0.2556665463E+03      0.1144845049E+04      0.1121070721E+05      0.4628568593E+02
          0                 3           2            11    6     1       0.2314307484E+01      16    2    1      -0.1278909044E+02      0.5735741064E+02      0.1144845049E+04      0.2314307484E+01
          0                 4           2            11    6     1       0.1156933903E+00      16    2    1      -0.6393407459E+00      0.2868063166E+01      0.5735741064E+02      0.1156933903E+00
          0                 5           2            11    6     1       0.5782413582E-02      16    2    1      -0.3195426977E-01      0.1433459529E+00      0.2868063166E+01      0.5782413582E-02

    ------------------------------------------------
       NWT REQUIRED            5 OUTER ITERATIONS 
       AND A TOTAL OF         10 INNER ITERATIONS.
    ------------------------------------------------

 OUTPUT CONTROL FOR STRESS PERIOD    1   TIME STEP  341
    SAVE HEAD FOR ALL LAYERS
    SAVE DRAWDOWN FOR ALL LAYERS
    SAVE BUDGET
    PRINT BUDGET
 UBDSV1 SAVING "         STORAGE" ON UNIT   9 AT TIME STEP341, STRESS PERIOD   1
 UBDSV2 SAVING "   CONSTANT HEAD" ON UNIT   9 AT TIME STEP341, STRESS PERIOD   1
 UBDSV1 SAVING "FLOW RIGHT FACE " ON UNIT   9 AT TIME STEP341, STRESS PERIOD   1
 UBDSV1 SAVING "FLOW FRONT FACE " ON UNIT   9 AT TIME STEP341, STRESS PERIOD   1
 UBDSV4 SAVING "   RIVER LEAKAGE" ON UNIT   9 AT TIME STEP341, STRESS PERIOD   1
 UBDSV3 SAVING "        RECHARGE" ON UNIT   9 AT TIME STEP341, STRESS PERIOD   1

 HEAD WILL BE SAVED ON UNIT 5037 AT END OF TIME STEP  341, STRESS PERIOD    1

 DRAWDOWN WILL BE SAVED ON UNIT   38 AT END OF TIME STEP  341, STRESS PERIOD    1
1
  VOLUMETRIC BUDGET FOR ENTIRE MODEL AT END OF TIME STEP  341, STRESS PERIOD   1
  ------------------------------------------------------------------------------

     CUMULATIVE VOLUMES      L**3       RATES FOR THIS TIME STEP      L**3/T
     ------------------                 ------------------------

           IN:                                      IN:
           ---                                      ---
             STORAGE =    14613198.0000               STORAGE =      109754.6562
       CONSTANT HEAD =           0.0000         CONSTANT HEAD =           0.0000
       RIVER LEAKAGE =     1984404.0000         RIVER LEAKAGE =        3342.8884
            RECHARGE =    17384314.0000              RECHARGE =       19668.2891

            TOTAL IN =    33981916.0000              TOTAL IN =      132765.8438

          OUT:                                     OUT:
          ----                                     ----
             STORAGE =    14524167.0000               STORAGE =       52467.2344
       CONSTANT HEAD =           0.0000         CONSTANT HEAD =           0.0000
       RIVER LEAKAGE =    19438904.0000         RIVER LEAKAGE =       80298.5547
            RECHARGE =           0.0000              RECHARGE =           0.0000

           TOTAL OUT =    33963072.0000             TOTAL OUT =      132765.7812

            IN - OUT =       18844.0000              IN - OUT =       6.2500E-02

 PERCENT DISCREPANCY =           0.06     PERCENT DISCREPANCY =           0.00






         TIME SUMMARY AT END OF TIME STEP  341 IN STRESS PERIOD    1
                    SECONDS     MINUTES      HOURS       DAYS        YEARS
                    -----------------------------------------------------------
   TIME STEP LENGTH  86400.      1440.0      24.000      1.0000     2.73785E-03
 STRESS PERIOD TIME 2.94624E+07 4.91040E+05  8184.0      341.00     0.93361    
         TOTAL TIME 2.94624E+07 4.91040E+05  8184.0      341.00     0.93361    
1
 
 SOLVING FOR HEAD 
                                                   Max.-Head-Change                        Max.-Flux-Residual
  Residual-Control   Outer-Iter.   Inner-Iter.     Column Row Layer    Max.-Head-Change    Column Row Layer    Max.-Flux-Residual            L2-New               L2-Old           Solver-Max-Delh
          0                 1           2            11    6     1      -0.3937635101E+03      16    2    1       0.2516749408E+04      0.1015593961E+05      0.1433459529E+00     -0.3937635101E+03
          0                 2           2            11    6     1       0.3400683757E+02      33   19    1       0.1517217845E+04      0.1832079952E+04      0.1015593961E+05      0.3400683757E+02
          0                 3           2            11    6     1       0.1700358913E+01      33   19    1       0.7561088828E+02      0.9318973497E+02      0.1832079952E+04      0.1700358913E+01
          0                 4           2            11    6     1       0.8500179371E-01      33   19    1       0.3779166027E+01      0.4660804496E+01      0.9318973497E+02      0.8500179371E-01

    ------------------------------------------------
       NWT REQUIRED            4 OUTER ITERATIONS 
       AND A TOTAL OF          8 INNER ITERATIONS.
    ------------------------------------------------

 OUTPUT CONTROL FOR STRESS PERIOD    1   TIME STEP  342
    SAVE HEAD FOR ALL LAYERS
    SAVE DRAWDOWN FOR ALL LAYERS
    SAVE BUDGET
    PRINT BUDGET
 UBDSV1 SAVING "         STORAGE" ON UNIT   9 AT TIME STEP342, STRESS PERIOD   1
 UBDSV2 SAVING "   CONSTANT HEAD" ON UNIT   9 AT TIME STEP342, STRESS PERIOD   1
 UBDSV1 SAVING "FLOW RIGHT FACE " ON UNIT   9 AT TIME STEP342, STRESS PERIOD   1
 UBDSV1 SAVING "FLOW FRONT FACE " ON UNIT   9 AT TIME STEP342, STRESS PERIOD   1
 UBDSV4 SAVING "   RIVER LEAKAGE" ON UNIT   9 AT TIME STEP342, STRESS PERIOD   1
 UBDSV3 SAVING "        RECHARGE" ON UNIT   9 AT TIME STEP342, STRESS PERIOD   1

 HEAD WILL BE SAVED ON UNIT 5037 AT END OF TIME STEP  342, STRESS PERIOD    1

 DRAWDOWN WILL BE SAVED ON UNIT   38 AT END OF TIME STEP  342, STRESS PERIOD    1
1
  VOLUMETRIC BUDGET FOR ENTIRE MODEL AT END OF TIME STEP  342, STRESS PERIOD   1
  ------------------------------------------------------------------------------

     CUMULATIVE VOLUMES      L**3       RATES FOR THIS TIME STEP      L**3/T
     ------------------                 ------------------------

           IN:                                      IN:
           ---                                      ---
             STORAGE =    14713459.0000               STORAGE =      100260.9453
       CONSTANT HEAD =           0.0000         CONSTANT HEAD =           0.0000
       RIVER LEAKAGE =     1988145.2500         RIVER LEAKAGE =        3741.2769
            RECHARGE =    17399910.0000              RECHARGE =       15596.4160

            TOTAL IN =    34101512.0000              TOTAL IN =      119598.6328

          OUT:                                     OUT:
          ----                                     ----
             STORAGE =    14571299.0000               STORAGE =       47131.6523
       CONSTANT HEAD =           0.0000         CONSTANT HEAD =           0.0000
       RIVER LEAKAGE =    19511370.0000         RIVER LEAKAGE =       72466.0781
            RECHARGE =           0.0000              RECHARGE =           0.0000

           TOTAL OUT =    34082668.0000             TOTAL OUT =      119597.7344

            IN - OUT =       18844.0000              IN - OUT =           0.8984

 PERCENT DISCREPANCY =           0.06     PERCENT DISCREPANCY =           0.00






         TIME SUMMARY AT END OF TIME STEP  342 IN STRESS PERIOD    1
                    SECONDS     MINUTES      HOURS       DAYS        YEARS
                    -----------------------------------------------------------
   TIME STEP LENGTH  86400.      1440.0      24.000      1.0000     2.73785E-03
 STRESS PERIOD TIME 2.95488E+07 4.92480E+05  8208.0      342.00     0.93634    
         TOTAL TIME 2.95488E+07 4.92480E+05  8208.0      342.00     0.93634    
1
 
 SOLVING FOR HEAD 
                                                   Max.-Head-Change                        Max.-Flux-Residual
  Residual-Control   Outer-Iter.   Inner-Iter.     Column Row Layer    Max.-Head-Change    Column Row Layer    Max.-Flux-Residual            L2-New               L2-Old           Solver-Max-Delh
          0                 1           2            11    6     1      -0.2879327446E+03      16    2    1       0.2468374590E+04      0.9331072492E+04      0.4660804496E+01     -0.2879327446E+03
          1                 1           0            11    6     1      -0.2015529178E+03      14    6    1       0.2492613997E+05      0.2494443867E+05      0.9331072492E+04     -0.2879327446E+03
          2                 1           0            11    6     1      -0.1410870400E+03      14    6    1       0.1454728371E+05      0.1470491466E+05      0.2494443867E+05     -0.2879327446E+03
          0                 2           2            11    6     1      -0.1327369879E+03      14    6    1       0.7265666623E+04      0.8442136384E+04      0.1470491466E+05     -0.1327369879E+03
          0                 3           2            11    6     1       0.1146366349E+02      14    6    1       0.3571970989E+03      0.5881057615E+03      0.8442136384E+04      0.1146366349E+02
          0                 4           2            11    6     1       0.5731889177E+00      14    6    1       0.1784165126E+02      0.3456978457E+02      0.5881057615E+03      0.5731889177E+00
          0                 5           2            11    6     1       0.2865400109E-01      14    6    1       0.8916887915E+00      0.1728153099E+01      0.3456978457E+02      0.2865400109E-01

    ------------------------------------------------
       NWT REQUIRED            5 OUTER ITERATIONS 
       AND A TOTAL OF         10 INNER ITERATIONS.
    ------------------------------------------------

 OUTPUT CONTROL FOR STRESS PERIOD    1   TIME STEP  343
    SAVE HEAD FOR ALL LAYERS
    SAVE DRAWDOWN FOR ALL LAYERS
    SAVE BUDGET
    PRINT BUDGET
 UBDSV1 SAVING "         STORAGE" ON UNIT   9 AT TIME STEP343, STRESS PERIOD   1
 UBDSV2 SAVING "   CONSTANT HEAD" ON UNIT   9 AT TIME STEP343, STRESS PERIOD   1
 UBDSV1 SAVING "FLOW RIGHT FACE " ON UNIT   9 AT TIME STEP343, STRESS PERIOD   1
 UBDSV1 SAVING "FLOW FRONT FACE " ON UNIT   9 AT TIME STEP343, STRESS PERIOD   1
 UBDSV4 SAVING "   RIVER LEAKAGE" ON UNIT   9 AT TIME STEP343, STRESS PERIOD   1
 UBDSV3 SAVING "        RECHARGE" ON UNIT   9 AT TIME STEP343, STRESS PERIOD   1

 HEAD WILL BE SAVED ON UNIT 5037 AT END OF TIME STEP  343, STRESS PERIOD    1

 DRAWDOWN WILL BE SAVED ON UNIT   38 AT END OF TIME STEP  343, STRESS PERIOD    1
1
  VOLUMETRIC BUDGET FOR ENTIRE MODEL AT END OF TIME STEP  343, STRESS PERIOD   1
  ------------------------------------------------------------------------------

     CUMULATIVE VOLUMES      L**3       RATES FOR THIS TIME STEP      L**3/T
     ------------------                 ------------------------

           IN:                                      IN:
           ---                                      ---
             STORAGE =    14806421.0000               STORAGE =       92961.5703
       CONSTANT HEAD =           0.0000         CONSTANT HEAD =           0.0000
       RIVER LEAKAGE =     1992200.8750         RIVER LEAKAGE =        4055.5635
            RECHARGE =    17412868.0000              RECHARGE =       12957.6553

            TOTAL IN =    34211488.0000              TOTAL IN =      109974.7891

          OUT:                                     OUT:
          ----                                     ----
             STORAGE =    14613937.0000               STORAGE =       42637.5742
       CONSTANT HEAD =           0.0000         CONSTANT HEAD =           0.0000
       RIVER LEAKAGE =    19578706.0000         RIVER LEAKAGE =       67336.8984
            RECHARGE =           0.0000              RECHARGE =           0.0000

           TOTAL OUT =    34192644.0000             TOTAL OUT =      109974.4688

            IN - OUT =       18844.0000              IN - OUT =           0.3203

 PERCENT DISCREPANCY =           0.06     PERCENT DISCREPANCY =           0.00






         TIME SUMMARY AT END OF TIME STEP  343 IN STRESS PERIOD    1
                    SECONDS     MINUTES      HOURS       DAYS        YEARS
                    -----------------------------------------------------------
   TIME STEP LENGTH  86400.      1440.0      24.000      1.0000     2.73785E-03
 STRESS PERIOD TIME 2.96352E+07 4.93920E+05  8232.0      343.00     0.93908    
         TOTAL TIME 2.96352E+07 4.93920E+05  8232.0      343.00     0.93908    
1
 
 SOLVING FOR HEAD 
                                                   Max.-Head-Change                        Max.-Flux-Residual
  Residual-Control   Outer-Iter.   Inner-Iter.     Column Row Layer    Max.-Head-Change    Column Row Layer    Max.-Flux-Residual            L2-New               L2-Old           Solver-Max-Delh
          0                 1           2            11    6     1       0.9552281719E+04      13    9    1       0.1584738535E+05      0.1422044382E+06      0.1728153099E+01      0.9552281719E+04
          0                 2           2            11    6     1      -0.8245683143E+03      29   17    1      -0.2083540935E+05      0.3147677665E+05      0.1422044382E+06     -0.8245683143E+03
          0                 3           2            11    6     1      -0.4124153209E+02      29   18    1       0.6906182257E+04      0.7231335054E+04      0.3147677665E+05     -0.4124153209E+02
          0                 4           2            11    6     1      -0.2061684847E+01      29   18    1       0.1222201069E+04      0.1227012698E+04      0.7231335054E+04     -0.2061684847E+01
          0                 5           2            11    6     1      -0.1030440410E+00      29   18    1       0.2168124622E+03      0.2168875668E+03      0.1227012698E+04     -0.1030440410E+00
          0                 6           2            11    6     1      -0.5149162318E-02      29   18    1       0.3847612581E+02      0.3847776761E+02      0.2168875668E+03     -0.5149162318E-02

    ------------------------------------------------
       NWT REQUIRED            6 OUTER ITERATIONS 
       AND A TOTAL OF         12 INNER ITERATIONS.
    ------------------------------------------------

 OUTPUT CONTROL FOR STRESS PERIOD    1   TIME STEP  344
    SAVE HEAD FOR ALL LAYERS
    SAVE DRAWDOWN FOR ALL LAYERS
    SAVE BUDGET
    PRINT BUDGET
 UBDSV1 SAVING "         STORAGE" ON UNIT   9 AT TIME STEP344, STRESS PERIOD   1
 UBDSV2 SAVING "   CONSTANT HEAD" ON UNIT   9 AT TIME STEP344, STRESS PERIOD   1
 UBDSV1 SAVING "FLOW RIGHT FACE " ON UNIT   9 AT TIME STEP344, STRESS PERIOD   1
 UBDSV1 SAVING "FLOW FRONT FACE " ON UNIT   9 AT TIME STEP344, STRESS PERIOD   1
 UBDSV4 SAVING "   RIVER LEAKAGE" ON UNIT   9 AT TIME STEP344, STRESS PERIOD   1
 UBDSV3 SAVING "        RECHARGE" ON UNIT   9 AT TIME STEP344, STRESS PERIOD   1

 HEAD WILL BE SAVED ON UNIT 5037 AT END OF TIME STEP  344, STRESS PERIOD    1

 DRAWDOWN WILL BE SAVED ON UNIT   38 AT END OF TIME STEP  344, STRESS PERIOD    1
1
  VOLUMETRIC BUDGET FOR ENTIRE MODEL AT END OF TIME STEP  344, STRESS PERIOD   1
  ------------------------------------------------------------------------------

     CUMULATIVE VOLUMES      L**3       RATES FOR THIS TIME STEP      L**3/T
     ------------------                 ------------------------

           IN:                                      IN:
           ---                                      ---
             STORAGE =    14808986.0000               STORAGE =        2565.2141
       CONSTANT HEAD =           0.0000         CONSTANT HEAD =           0.0000
       RIVER LEAKAGE =     1992200.8750         RIVER LEAKAGE =           0.0000
            RECHARGE =    20124304.0000              RECHARGE =     2711435.2500

            TOTAL IN =    36925488.0000              TOTAL IN =     2714000.5000

          OUT:                                     OUT:
          ----                                     ----
             STORAGE =    16367516.0000               STORAGE =     1753579.1250
       CONSTANT HEAD =           0.0000         CONSTANT HEAD =           0.0000
       RIVER LEAKAGE =    20539120.0000         RIVER LEAKAGE =      960414.5625
            RECHARGE =           0.0000              RECHARGE =           0.0000

           TOTAL OUT =    36906636.0000             TOTAL OUT =     2713993.7500

            IN - OUT =       18852.0000              IN - OUT =           6.7500

 PERCENT DISCREPANCY =           0.05     PERCENT DISCREPANCY =           0.00






         TIME SUMMARY AT END OF TIME STEP  344 IN STRESS PERIOD    1
                    SECONDS     MINUTES      HOURS       DAYS        YEARS
                    -----------------------------------------------------------
   TIME STEP LENGTH  86400.      1440.0      24.000      1.0000     2.73785E-03
 STRESS PERIOD TIME 2.97216E+07 4.95360E+05  8256.0      344.00     0.94182    
         TOTAL TIME 2.97216E+07 4.95360E+05  8256.0      344.00     0.94182    
1
 
 SOLVING FOR HEAD 
                                                   Max.-Head-Change                        Max.-Flux-Residual
  Residual-Control   Outer-Iter.   Inner-Iter.     Column Row Layer    Max.-Head-Change    Column Row Layer    Max.-Flux-Residual            L2-New               L2-Old           Solver-Max-Delh
          0                 1           2            11    6     1       0.2863807250E+04      17    6    1       0.2511413722E+05      0.1504927969E+06      0.3847776761E+02      0.2863807250E+04
          0                 2           2            11    6     1      -0.2473288266E+03      21   15    1       0.5249331064E+04      0.1754648315E+05      0.1504927969E+06     -0.2473288266E+03
          0                 3           2            11    6     1      -0.1236656532E+02      30   12    1       0.2253838605E+04      0.2516773491E+04      0.1754648315E+05     -0.1236656532E+02
          0                 4           2            11    6     1      -0.6182107948E+00      30   12    1       0.3996401582E+03      0.4035629196E+03      0.2516773491E+04     -0.6182107948E+00
          0                 5           2            11    6     1      -0.3089848510E-01      30   12    1       0.7091881834E+02      0.7097550955E+02      0.4035629196E+03     -0.3089848510E-01

    ------------------------------------------------
       NWT REQUIRED            5 OUTER ITERATIONS 
       AND A TOTAL OF         10 INNER ITERATIONS.
    ------------------------------------------------

 OUTPUT CONTROL FOR STRESS PERIOD    1   TIME STEP  345
    SAVE HEAD FOR ALL LAYERS
    SAVE DRAWDOWN FOR ALL LAYERS
    SAVE BUDGET
    PRINT BUDGET
 UBDSV1 SAVING "         STORAGE" ON UNIT   9 AT TIME STEP345, STRESS PERIOD   1
 UBDSV2 SAVING "   CONSTANT HEAD" ON UNIT   9 AT TIME STEP345, STRESS PERIOD   1
 UBDSV1 SAVING "FLOW RIGHT FACE " ON UNIT   9 AT TIME STEP345, STRESS PERIOD   1
 UBDSV1 SAVING "FLOW FRONT FACE " ON UNIT   9 AT TIME STEP345, STRESS PERIOD   1
 UBDSV4 SAVING "   RIVER LEAKAGE" ON UNIT   9 AT TIME STEP345, STRESS PERIOD   1
 UBDSV3 SAVING "        RECHARGE" ON UNIT   9 AT TIME STEP345, STRESS PERIOD   1

 HEAD WILL BE SAVED ON UNIT 5037 AT END OF TIME STEP  345, STRESS PERIOD    1

 DRAWDOWN WILL BE SAVED ON UNIT   38 AT END OF TIME STEP  345, STRESS PERIOD    1
1
  VOLUMETRIC BUDGET FOR ENTIRE MODEL AT END OF TIME STEP  345, STRESS PERIOD   1
  ------------------------------------------------------------------------------

     CUMULATIVE VOLUMES      L**3       RATES FOR THIS TIME STEP      L**3/T
     ------------------                 ------------------------

           IN:                                      IN:
           ---                                      ---
             STORAGE =    14811325.0000               STORAGE =        2339.0105
       CONSTANT HEAD =           0.0000         CONSTANT HEAD =           0.0000
       RIVER LEAKAGE =     2034923.1250         RIVER LEAKAGE =       42722.2461
            RECHARGE =    21939356.0000              RECHARGE =     1815051.0000

            TOTAL IN =    38785604.0000              TOTAL IN =     1860112.2500

          OUT:                                     OUT:
          ----                                     ----
             STORAGE =    17728530.0000               STORAGE =     1361013.6250
       CONSTANT HEAD =           0.0000         CONSTANT HEAD =           0.0000
       RIVER LEAKAGE =    21038208.0000         RIVER LEAKAGE =      499087.9688
            RECHARGE =           0.0000              RECHARGE =           0.0000

           TOTAL OUT =    38766736.0000             TOTAL OUT =     1860101.6250

            IN - OUT =       18868.0000              IN - OUT =          10.6250

 PERCENT DISCREPANCY =           0.05     PERCENT DISCREPANCY =           0.00






         TIME SUMMARY AT END OF TIME STEP  345 IN STRESS PERIOD    1
                    SECONDS     MINUTES      HOURS       DAYS        YEARS
                    -----------------------------------------------------------
   TIME STEP LENGTH  86400.      1440.0      24.000      1.0000     2.73785E-03
 STRESS PERIOD TIME 2.98080E+07 4.96800E+05  8280.0      345.00     0.94456    
         TOTAL TIME 2.98080E+07 4.96800E+05  8280.0      345.00     0.94456    
1
 
 SOLVING FOR HEAD 
                                                   Max.-Head-Change                        Max.-Flux-Residual
  Residual-Control   Outer-Iter.   Inner-Iter.     Column Row Layer    Max.-Head-Change    Column Row Layer    Max.-Flux-Residual            L2-New               L2-Old           Solver-Max-Delh
          0                 1           2            11    6     1      -0.7458323982E+03      17    6    1      -0.1932933835E+05      0.9835424549E+05      0.7097550955E+02     -0.7458323982E+03
          0                 2           2            11    6     1       0.6441260434E+02      21    2    1       0.4105153234E+04      0.1168611600E+05      0.9835424549E+05      0.6441260434E+02
          0                 3           2            11    6     1       0.3220662435E+01      21    2    1      -0.4105153295E+03      0.8506909950E+03      0.1168611600E+05      0.3220662435E+01
          0                 4           2            11    6     1       0.1610025281E+00      40   16    1       0.4401886189E+02      0.5993669412E+02      0.8506909950E+03      0.1610025281E+00
          0                 5           2            11    6     1       0.8046986981E-02      40   16    1       0.7812393703E+01      0.8072520888E+01      0.5993669412E+02      0.8046986981E-02

    ------------------------------------------------
       NWT REQUIRED            5 OUTER ITERATIONS 
       AND A TOTAL OF         10 INNER ITERATIONS.
    ------------------------------------------------

 OUTPUT CONTROL FOR STRESS PERIOD    1   TIME STEP  346
    SAVE HEAD FOR ALL LAYERS
    SAVE DRAWDOWN FOR ALL LAYERS
    SAVE BUDGET
    PRINT BUDGET
 UBDSV1 SAVING "         STORAGE" ON UNIT   9 AT TIME STEP346, STRESS PERIOD   1
 UBDSV2 SAVING "   CONSTANT HEAD" ON UNIT   9 AT TIME STEP346, STRESS PERIOD   1
 UBDSV1 SAVING "FLOW RIGHT FACE " ON UNIT   9 AT TIME STEP346, STRESS PERIOD   1
 UBDSV1 SAVING "FLOW FRONT FACE " ON UNIT   9 AT TIME STEP346, STRESS PERIOD   1
 UBDSV4 SAVING "   RIVER LEAKAGE" ON UNIT   9 AT TIME STEP346, STRESS PERIOD   1
 UBDSV3 SAVING "        RECHARGE" ON UNIT   9 AT TIME STEP346, STRESS PERIOD   1

 HEAD WILL BE SAVED ON UNIT 5037 AT END OF TIME STEP  346, STRESS PERIOD    1

 DRAWDOWN WILL BE SAVED ON UNIT   38 AT END OF TIME STEP  346, STRESS PERIOD    1
1
  VOLUMETRIC BUDGET FOR ENTIRE MODEL AT END OF TIME STEP  346, STRESS PERIOD   1
  ------------------------------------------------------------------------------

     CUMULATIVE VOLUMES      L**3       RATES FOR THIS TIME STEP      L**3/T
     ------------------                 ------------------------

           IN:                                      IN:
           ---                                      ---
             STORAGE =    15054981.0000               STORAGE =      243655.9531
       CONSTANT HEAD =           0.0000         CONSTANT HEAD =           0.0000
       RIVER LEAKAGE =     2034923.1250         RIVER LEAKAGE =           0.0000
            RECHARGE =    22940748.0000              RECHARGE =     1001392.9375

            TOTAL IN =    40030652.0000              TOTAL IN =     1245048.8750

          OUT:                                     OUT:
          ----                                     ----
             STORAGE =    18216316.0000               STORAGE =      487785.3438
       CONSTANT HEAD =           0.0000         CONSTANT HEAD =           0.0000
       RIVER LEAKAGE =    21795470.0000         RIVER LEAKAGE =      757261.9375
            RECHARGE =           0.0000              RECHARGE =           0.0000

           TOTAL OUT =    40011784.0000             TOTAL OUT =     1245047.2500

            IN - OUT =       18868.0000              IN - OUT =           1.6250

 PERCENT DISCREPANCY =           0.05     PERCENT DISCREPANCY =           0.00






         TIME SUMMARY AT END OF TIME STEP  346 IN STRESS PERIOD    1
                    SECONDS     MINUTES      HOURS       DAYS        YEARS
                    -----------------------------------------------------------
   TIME STEP LENGTH  86400.      1440.0      24.000      1.0000     2.73785E-03
 STRESS PERIOD TIME 2.98944E+07 4.98240E+05  8304.0      346.00     0.94730    
         TOTAL TIME 2.98944E+07 4.98240E+05  8304.0      346.00     0.94730    
1
 
 SOLVING FOR HEAD 
                                                   Max.-Head-Change                        Max.-Flux-Residual
  Residual-Control   Outer-Iter.   Inner-Iter.     Column Row Layer    Max.-Head-Change    Column Row Layer    Max.-Flux-Residual            L2-New               L2-Old           Solver-Max-Delh
          0                 1           2            11    6     1      -0.1414845044E+04      17    6    1      -0.7517341105E+04      0.5761340893E+05      0.8072520888E+01     -0.1414845044E+04
          0                 2           2            11    6     1       0.1221948941E+03      17    6    1       0.7517631171E+03      0.5756153514E+04      0.5761340893E+05      0.1221948941E+03
          0                 3           2            11    6     1       0.6109805924E+01      22    1    1      -0.4731501601E+02      0.2913640520E+03      0.5756153514E+04      0.6109805924E+01
          0                 4           2            11    6     1       0.3054322584E+00      22    1    1      -0.2365757625E+01      0.1456539974E+02      0.2913640520E+03      0.3054322584E+00
          0                 5           2            11    6     1       0.1526565722E-01      22    1    1      -0.1182645648E+00      0.7279833752E+00      0.1456539974E+02      0.1526565722E-01

    ------------------------------------------------
       NWT REQUIRED            5 OUTER ITERATIONS 
       AND A TOTAL OF         10 INNER ITERATIONS.
    ------------------------------------------------

 OUTPUT CONTROL FOR STRESS PERIOD    1   TIME STEP  347
    SAVE HEAD FOR ALL LAYERS
    SAVE DRAWDOWN FOR ALL LAYERS
    SAVE BUDGET
    PRINT BUDGET
 UBDSV1 SAVING "         STORAGE" ON UNIT   9 AT TIME STEP347, STRESS PERIOD   1
 UBDSV2 SAVING "   CONSTANT HEAD" ON UNIT   9 AT TIME STEP347, STRESS PERIOD   1
 UBDSV1 SAVING "FLOW RIGHT FACE " ON UNIT   9 AT TIME STEP347, STRESS PERIOD   1
 UBDSV1 SAVING "FLOW FRONT FACE " ON UNIT   9 AT TIME STEP347, STRESS PERIOD   1
 UBDSV4 SAVING "   RIVER LEAKAGE" ON UNIT   9 AT TIME STEP347, STRESS PERIOD   1
 UBDSV3 SAVING "        RECHARGE" ON UNIT   9 AT TIME STEP347, STRESS PERIOD   1

 HEAD WILL BE SAVED ON UNIT 5037 AT END OF TIME STEP  347, STRESS PERIOD    1

 DRAWDOWN WILL BE SAVED ON UNIT   38 AT END OF TIME STEP  347, STRESS PERIOD    1
1
  VOLUMETRIC BUDGET FOR ENTIRE MODEL AT END OF TIME STEP  347, STRESS PERIOD   1
  ------------------------------------------------------------------------------

     CUMULATIVE VOLUMES      L**3       RATES FOR THIS TIME STEP      L**3/T
     ------------------                 ------------------------

           IN:                                      IN:
           ---                                      ---
             STORAGE =    15226270.0000               STORAGE =      171288.8906
       CONSTANT HEAD =           0.0000         CONSTANT HEAD =           0.0000
       RIVER LEAKAGE =     2034923.1250         RIVER LEAKAGE =           0.0000
            RECHARGE =    23707370.0000              RECHARGE =      766621.5000

            TOTAL IN =    40968564.0000              TOTAL IN =      937910.3750

          OUT:                                     OUT:
          ----                                     ----
             STORAGE =    18587692.0000               STORAGE =      371376.3438
       CONSTANT HEAD =           0.0000         CONSTANT HEAD =           0.0000
       RIVER LEAKAGE =    22362004.0000         RIVER LEAKAGE =      566533.8750
            RECHARGE =           0.0000              RECHARGE =           0.0000

           TOTAL OUT =    40949696.0000             TOTAL OUT =      937910.2500

            IN - OUT =       18868.0000              IN - OUT =           0.1250

 PERCENT DISCREPANCY =           0.05     PERCENT DISCREPANCY =           0.00






         TIME SUMMARY AT END OF TIME STEP  347 IN STRESS PERIOD    1
                    SECONDS     MINUTES      HOURS       DAYS        YEARS
                    -----------------------------------------------------------
   TIME STEP LENGTH  86400.      1440.0      24.000      1.0000     2.73785E-03
 STRESS PERIOD TIME 2.99808E+07 4.99680E+05  8328.0      347.00     0.95003    
         TOTAL TIME 2.99808E+07 4.99680E+05  8328.0      347.00     0.95003    
1
 
 SOLVING FOR HEAD 
                                                   Max.-Head-Change                        Max.-Flux-Residual
  Residual-Control   Outer-Iter.   Inner-Iter.     Column Row Layer    Max.-Head-Change    Column Row Layer    Max.-Flux-Residual            L2-New               L2-Old           Solver-Max-Delh
          0                 1           2            11    6     1      -0.2021319550E+04      12    7    1       0.5007205321E+04      0.3981638880E+05      0.7279833752E+00     -0.2021319550E+04
          0                 2           2            11    6     1       0.1745678429E+03      10    1    1       0.1127323995E+04      0.4267847922E+04      0.3981638880E+05      0.1745678429E+03
          0                 3           2            11    6     1       0.8728479586E+01      10    1    1      -0.1279316193E+03      0.2608768682E+03      0.4267847922E+04      0.8728479586E+01
          0                 4           2            11    6     1       0.4363410664E+00      10    1    1      -0.6396579708E+01      0.1304245259E+02      0.2608768682E+03      0.4363410664E+00
          0                 5           2            11    6     1       0.2180854500E-01      10    1    1      -0.3197656149E+00      0.6519357354E+00      0.1304245259E+02      0.2180854500E-01

    ------------------------------------------------
       NWT REQUIRED            5 OUTER ITERATIONS 
       AND A TOTAL OF         10 INNER ITERATIONS.
    ------------------------------------------------

 OUTPUT CONTROL FOR STRESS PERIOD    1   TIME STEP  348
    SAVE HEAD FOR ALL LAYERS
    SAVE DRAWDOWN FOR ALL LAYERS
    SAVE BUDGET
    PRINT BUDGET
 UBDSV1 SAVING "         STORAGE" ON UNIT   9 AT TIME STEP348, STRESS PERIOD   1
 UBDSV2 SAVING "   CONSTANT HEAD" ON UNIT   9 AT TIME STEP348, STRESS PERIOD   1
 UBDSV1 SAVING "FLOW RIGHT FACE " ON UNIT   9 AT TIME STEP348, STRESS PERIOD   1
 UBDSV1 SAVING "FLOW FRONT FACE " ON UNIT   9 AT TIME STEP348, STRESS PERIOD   1
 UBDSV4 SAVING "   RIVER LEAKAGE" ON UNIT   9 AT TIME STEP348, STRESS PERIOD   1
 UBDSV3 SAVING "        RECHARGE" ON UNIT   9 AT TIME STEP348, STRESS PERIOD   1

 HEAD WILL BE SAVED ON UNIT 5037 AT END OF TIME STEP  348, STRESS PERIOD    1

 DRAWDOWN WILL BE SAVED ON UNIT   38 AT END OF TIME STEP  348, STRESS PERIOD    1
1
  VOLUMETRIC BUDGET FOR ENTIRE MODEL AT END OF TIME STEP  348, STRESS PERIOD   1
  ------------------------------------------------------------------------------

     CUMULATIVE VOLUMES      L**3       RATES FOR THIS TIME STEP      L**3/T
     ------------------                 ------------------------

           IN:                                      IN:
           ---                                      ---
             STORAGE =    15412638.0000               STORAGE =      186368.0469
       CONSTANT HEAD =           0.0000         CONSTANT HEAD =           0.0000
       RIVER LEAKAGE =     2034923.1250         RIVER LEAKAGE =           0.0000
            RECHARGE =    24140540.0000              RECHARGE =      433170.0938

            TOTAL IN =    41588104.0000              TOTAL IN =      619538.1250

          OUT:                                     OUT:
          ----                                     ----
             STORAGE =    18815292.0000               STORAGE =      227599.9844
       CONSTANT HEAD =           0.0000         CONSTANT HEAD =           0.0000
       RIVER LEAKAGE =    22753942.0000         RIVER LEAKAGE =      391938.0312
            RECHARGE =           0.0000              RECHARGE =           0.0000

           TOTAL OUT =    41569232.0000             TOTAL OUT =      619538.0000

            IN - OUT =       18872.0000              IN - OUT =           0.1250

 PERCENT DISCREPANCY =           0.05     PERCENT DISCREPANCY =           0.00






         TIME SUMMARY AT END OF TIME STEP  348 IN STRESS PERIOD    1
                    SECONDS     MINUTES      HOURS       DAYS        YEARS
                    -----------------------------------------------------------
   TIME STEP LENGTH  86400.      1440.0      24.000      1.0000     2.73785E-03
 STRESS PERIOD TIME 3.00672E+07 5.01120E+05  8352.0      348.00     0.95277    
         TOTAL TIME 3.00672E+07 5.01120E+05  8352.0      348.00     0.95277    
1
 
 SOLVING FOR HEAD 
                                                   Max.-Head-Change                        Max.-Flux-Residual
  Residual-Control   Outer-Iter.   Inner-Iter.     Column Row Layer    Max.-Head-Change    Column Row Layer    Max.-Flux-Residual            L2-New               L2-Old           Solver-Max-Delh
          0                 1           2            11    6     1      -0.1967098621E+04      16    2    1       0.5007595332E+04      0.2920482378E+05      0.6519357354E+00     -0.1967098621E+04
          0                 2           2            11    6     1       0.1698857972E+03      35    5    1       0.9763385340E+03      0.3079297973E+04      0.2920482378E+05      0.1698857972E+03
          0                 3           2            11    6     1       0.8494374840E+01      35    5    1      -0.9763385485E+02      0.1759060412E+03      0.3079297973E+04      0.8494374840E+01
          0                 4           2            11    6     1       0.4246380528E+00      35    5    1      -0.4881690269E+01      0.8794119927E+01      0.1759060412E+03      0.4246380528E+00
          0                 5           2            11    6     1       0.2122362252E-01      35    5    1      -0.2440355729E+00      0.4395579590E+00      0.8794119927E+01      0.2122362252E-01

    ------------------------------------------------
       NWT REQUIRED            5 OUTER ITERATIONS 
       AND A TOTAL OF         10 INNER ITERATIONS.
    ------------------------------------------------

 OUTPUT CONTROL FOR STRESS PERIOD    1   TIME STEP  349
    SAVE HEAD FOR ALL LAYERS
    SAVE DRAWDOWN FOR ALL LAYERS
    SAVE BUDGET
    PRINT BUDGET
 UBDSV1 SAVING "         STORAGE" ON UNIT   9 AT TIME STEP349, STRESS PERIOD   1
 UBDSV2 SAVING "   CONSTANT HEAD" ON UNIT   9 AT TIME STEP349, STRESS PERIOD   1
 UBDSV1 SAVING "FLOW RIGHT FACE " ON UNIT   9 AT TIME STEP349, STRESS PERIOD   1
 UBDSV1 SAVING "FLOW FRONT FACE " ON UNIT   9 AT TIME STEP349, STRESS PERIOD   1
 UBDSV4 SAVING "   RIVER LEAKAGE" ON UNIT   9 AT TIME STEP349, STRESS PERIOD   1
 UBDSV3 SAVING "        RECHARGE" ON UNIT   9 AT TIME STEP349, STRESS PERIOD   1

 HEAD WILL BE SAVED ON UNIT 5037 AT END OF TIME STEP  349, STRESS PERIOD    1

 DRAWDOWN WILL BE SAVED ON UNIT   38 AT END OF TIME STEP  349, STRESS PERIOD    1
1
  VOLUMETRIC BUDGET FOR ENTIRE MODEL AT END OF TIME STEP  349, STRESS PERIOD   1
  ------------------------------------------------------------------------------

     CUMULATIVE VOLUMES      L**3       RATES FOR THIS TIME STEP      L**3/T
     ------------------                 ------------------------

           IN:                                      IN:
           ---                                      ---
             STORAGE =    15609556.0000               STORAGE =      196918.0625
       CONSTANT HEAD =           0.0000         CONSTANT HEAD =           0.0000
       RIVER LEAKAGE =     2034923.1250         RIVER LEAKAGE =           0.0000
            RECHARGE =    24386600.0000              RECHARGE =      246059.8750

            TOTAL IN =    42031080.0000              TOTAL IN =      442977.9375

          OUT:                                     OUT:
          ----                                     ----
             STORAGE =    18976732.0000               STORAGE =      161439.6875
       CONSTANT HEAD =           0.0000         CONSTANT HEAD =           0.0000
       RIVER LEAKAGE =    23035480.0000         RIVER LEAKAGE =      281538.1250
            RECHARGE =           0.0000              RECHARGE =           0.0000

           TOTAL OUT =    42012212.0000             TOTAL OUT =      442977.8125

            IN - OUT =       18868.0000              IN - OUT =           0.1250

 PERCENT DISCREPANCY =           0.04     PERCENT DISCREPANCY =           0.00






         TIME SUMMARY AT END OF TIME STEP  349 IN STRESS PERIOD    1
                    SECONDS     MINUTES      HOURS       DAYS        YEARS
                    -----------------------------------------------------------
   TIME STEP LENGTH  86400.      1440.0      24.000      1.0000     2.73785E-03
 STRESS PERIOD TIME 3.01536E+07 5.02560E+05  8376.0      349.00     0.95551    
         TOTAL TIME 3.01536E+07 5.02560E+05  8376.0      349.00     0.95551    
1
 
 SOLVING FOR HEAD 
                                                   Max.-Head-Change                        Max.-Flux-Residual
  Residual-Control   Outer-Iter.   Inner-Iter.     Column Row Layer    Max.-Head-Change    Column Row Layer    Max.-Flux-Residual            L2-New               L2-Old           Solver-Max-Delh
          0                 1           2            11    6     1      -0.9483439301E+03      16    2    1       0.5099073903E+04      0.1856178459E+05      0.4395579590E+00     -0.9483439301E+03
          0                 2           2            11    6     1       0.8191767631E+02      33   18    1       0.1350119153E+04      0.2768301716E+04      0.1856178459E+05      0.8191767631E+02
          0                 3           2            11    6     1       0.4095924700E+01      33   18    1      -0.1384237971E+03      0.2351230701E+03      0.2768301716E+04      0.4095924700E+01
          0                 4           2            11    6     1       0.2047573273E+00      33   18    1      -0.6921174977E+01      0.1175579924E+02      0.2351230701E+03      0.2047573273E+00
          0                 5           2            11    6     1       0.1023387375E-01      33   18    1      -0.3459887933E+00      0.5876533417E+00      0.1175579924E+02      0.1023387375E-01

    ------------------------------------------------
       NWT REQUIRED            5 OUTER ITERATIONS 
       AND A TOTAL OF         10 INNER ITERATIONS.
    ------------------------------------------------

 OUTPUT CONTROL FOR STRESS PERIOD    1   TIME STEP  350
    SAVE HEAD FOR ALL LAYERS
    SAVE DRAWDOWN FOR ALL LAYERS
    SAVE BUDGET
    PRINT BUDGET
 UBDSV1 SAVING "         STORAGE" ON UNIT   9 AT TIME STEP350, STRESS PERIOD   1
 UBDSV2 SAVING "   CONSTANT HEAD" ON UNIT   9 AT TIME STEP350, STRESS PERIOD   1
 UBDSV1 SAVING "FLOW RIGHT FACE " ON UNIT   9 AT TIME STEP350, STRESS PERIOD   1
 UBDSV1 SAVING "FLOW FRONT FACE " ON UNIT   9 AT TIME STEP350, STRESS PERIOD   1
 UBDSV4 SAVING "   RIVER LEAKAGE" ON UNIT   9 AT TIME STEP350, STRESS PERIOD   1
 UBDSV3 SAVING "        RECHARGE" ON UNIT   9 AT TIME STEP350, STRESS PERIOD   1

 HEAD WILL BE SAVED ON UNIT 5037 AT END OF TIME STEP  350, STRESS PERIOD    1

 DRAWDOWN WILL BE SAVED ON UNIT   38 AT END OF TIME STEP  350, STRESS PERIOD    1
1
  VOLUMETRIC BUDGET FOR ENTIRE MODEL AT END OF TIME STEP  350, STRESS PERIOD   1
  ------------------------------------------------------------------------------

     CUMULATIVE VOLUMES      L**3       RATES FOR THIS TIME STEP      L**3/T
     ------------------                 ------------------------

           IN:                                      IN:
           ---                                      ---
             STORAGE =    15674896.0000               STORAGE =       65339.5664
       CONSTANT HEAD =           0.0000         CONSTANT HEAD =           0.0000
       RIVER LEAKAGE =     2034923.1250         RIVER LEAKAGE =           0.0000
            RECHARGE =    24817274.0000              RECHARGE =      430674.5312

            TOTAL IN =    42527096.0000              TOTAL IN =      496014.0938

          OUT:                                     OUT:
          ----                                     ----
             STORAGE =    19182302.0000               STORAGE =      205570.7500
       CONSTANT HEAD =           0.0000         CONSTANT HEAD =           0.0000
       RIVER LEAKAGE =    23325924.0000         RIVER LEAKAGE =      290443.4375
            RECHARGE =           0.0000              RECHARGE =           0.0000

           TOTAL OUT =    42508224.0000             TOTAL OUT =      496014.1875

            IN - OUT =       18872.0000              IN - OUT =      -9.3750E-02

 PERCENT DISCREPANCY =           0.04     PERCENT DISCREPANCY =          -0.00






         TIME SUMMARY AT END OF TIME STEP  350 IN STRESS PERIOD    1
                    SECONDS     MINUTES      HOURS       DAYS        YEARS
                    -----------------------------------------------------------
   TIME STEP LENGTH  86400.      1440.0      24.000      1.0000     2.73785E-03
 STRESS PERIOD TIME 3.02400E+07 5.04000E+05  8400.0      350.00     0.95825    
         TOTAL TIME 3.02400E+07 5.04000E+05  8400.0      350.00     0.95825    
1
 
 SOLVING FOR HEAD 
                                                   Max.-Head-Change                        Max.-Flux-Residual
  Residual-Control   Outer-Iter.   Inner-Iter.     Column Row Layer    Max.-Head-Change    Column Row Layer    Max.-Flux-Residual            L2-New               L2-Old           Solver-Max-Delh
          0                 1           2            11    6     1      -0.1170592201E+04      16    2    1       0.5213805610E+04      0.1880283791E+05      0.5876533417E+00     -0.1170592201E+04
          0                 2           2            11    6     1       0.1010966032E+03      16    2    1      -0.5247019855E+03      0.1889805687E+04      0.1880283791E+05      0.1010966032E+03
          0                 3           2            11    6     1       0.5054880810E+01      16    2    1      -0.2626011832E+02      0.9528109821E+02      0.1889805687E+04      0.5054880810E+01
          0                 4           2            11    6     1       0.2526960235E+00      16    2    1      -0.1312805364E+01      0.4763168903E+01      0.9528109821E+02      0.2526960235E+00
          0                 5           2            11    6     1       0.1262987380E-01      16    2    1      -0.6561413618E-01      0.2380643555E+00      0.4763168903E+01      0.1262987380E-01

    ------------------------------------------------
       NWT REQUIRED            5 OUTER ITERATIONS 
       AND A TOTAL OF         10 INNER ITERATIONS.
    ------------------------------------------------

 OUTPUT CONTROL FOR STRESS PERIOD    1   TIME STEP  351
    SAVE HEAD FOR ALL LAYERS
    SAVE DRAWDOWN FOR ALL LAYERS
    SAVE BUDGET
    PRINT BUDGET
 UBDSV1 SAVING "         STORAGE" ON UNIT   9 AT TIME STEP351, STRESS PERIOD   1
 UBDSV2 SAVING "   CONSTANT HEAD" ON UNIT   9 AT TIME STEP351, STRESS PERIOD   1
 UBDSV1 SAVING "FLOW RIGHT FACE " ON UNIT   9 AT TIME STEP351, STRESS PERIOD   1
 UBDSV1 SAVING "FLOW FRONT FACE " ON UNIT   9 AT TIME STEP351, STRESS PERIOD   1
 UBDSV4 SAVING "   RIVER LEAKAGE" ON UNIT   9 AT TIME STEP351, STRESS PERIOD   1
 UBDSV3 SAVING "        RECHARGE" ON UNIT   9 AT TIME STEP351, STRESS PERIOD   1

 HEAD WILL BE SAVED ON UNIT 5037 AT END OF TIME STEP  351, STRESS PERIOD    1

 DRAWDOWN WILL BE SAVED ON UNIT   38 AT END OF TIME STEP  351, STRESS PERIOD    1
1
  VOLUMETRIC BUDGET FOR ENTIRE MODEL AT END OF TIME STEP  351, STRESS PERIOD   1
  ------------------------------------------------------------------------------

     CUMULATIVE VOLUMES      L**3       RATES FOR THIS TIME STEP      L**3/T
     ------------------                 ------------------------

           IN:                                      IN:
           ---                                      ---
             STORAGE =    15796468.0000               STORAGE =      121572.2812
       CONSTANT HEAD =           0.0000         CONSTANT HEAD =           0.0000
       RIVER LEAKAGE =     2035269.3750         RIVER LEAKAGE =         346.2564
            RECHARGE =    25073704.0000              RECHARGE =      256430.7500

            TOTAL IN =    42905440.0000              TOTAL IN =      378349.2812

          OUT:                                     OUT:
          ----                                     ----
             STORAGE =    19331180.0000               STORAGE =      148879.0000
       CONSTANT HEAD =           0.0000         CONSTANT HEAD =           0.0000
       RIVER LEAKAGE =    23555394.0000         RIVER LEAKAGE =      229470.2812
            RECHARGE =           0.0000              RECHARGE =           0.0000

           TOTAL OUT =    42886576.0000             TOTAL OUT =      378349.2812

            IN - OUT =       18864.0000              IN - OUT =           0.0000

 PERCENT DISCREPANCY =           0.04     PERCENT DISCREPANCY =           0.00






         TIME SUMMARY AT END OF TIME STEP  351 IN STRESS PERIOD    1
                    SECONDS     MINUTES      HOURS       DAYS        YEARS
                    -----------------------------------------------------------
   TIME STEP LENGTH  86400.      1440.0      24.000      1.0000     2.73785E-03
 STRESS PERIOD TIME 3.03264E+07 5.05440E+05  8424.0      351.00     0.96099    
         TOTAL TIME 3.03264E+07 5.05440E+05  8424.0      351.00     0.96099    
1
 
 SOLVING FOR HEAD 
                                                   Max.-Head-Change                        Max.-Flux-Residual
  Residual-Control   Outer-Iter.   Inner-Iter.     Column Row Layer    Max.-Head-Change    Column Row Layer    Max.-Flux-Residual            L2-New               L2-Old           Solver-Max-Delh
          0                 1           2            11    6     1      -0.1092992533E+04      16    2    1       0.5246694383E+04      0.1823757017E+05      0.2380643555E+00     -0.1092992533E+04
          0                 2           2            11    6     1       0.9437954018E+02       7    7    1       0.7683779471E+03      0.1967545963E+04      0.1823757017E+05      0.9437954018E+02
          0                 3           2            11    6     1       0.4719024292E+01       7    7    1      -0.7767963751E+02      0.1261429356E+03      0.1967545963E+04      0.4719024292E+01
          0                 4           2            11    6     1       0.2359063880E+00       7    7    1      -0.3883977102E+01      0.6306546819E+01      0.1261429356E+03      0.2359063880E+00
          0                 5           2            11    6     1       0.1179071940E-01       7    7    1      -0.1941597766E+00      0.3145049471E+00      0.6306546819E+01      0.1179071940E-01

    ------------------------------------------------
       NWT REQUIRED            5 OUTER ITERATIONS 
       AND A TOTAL OF         10 INNER ITERATIONS.
    ------------------------------------------------

 OUTPUT CONTROL FOR STRESS PERIOD    1   TIME STEP  352
    SAVE HEAD FOR ALL LAYERS
    SAVE DRAWDOWN FOR ALL LAYERS
    SAVE BUDGET
    PRINT BUDGET
 UBDSV1 SAVING "         STORAGE" ON UNIT   9 AT TIME STEP352, STRESS PERIOD   1
 UBDSV2 SAVING "   CONSTANT HEAD" ON UNIT   9 AT TIME STEP352, STRESS PERIOD   1
 UBDSV1 SAVING "FLOW RIGHT FACE " ON UNIT   9 AT TIME STEP352, STRESS PERIOD   1
 UBDSV1 SAVING "FLOW FRONT FACE " ON UNIT   9 AT TIME STEP352, STRESS PERIOD   1
 UBDSV4 SAVING "   RIVER LEAKAGE" ON UNIT   9 AT TIME STEP352, STRESS PERIOD   1
 UBDSV3 SAVING "        RECHARGE" ON UNIT   9 AT TIME STEP352, STRESS PERIOD   1

 HEAD WILL BE SAVED ON UNIT 5037 AT END OF TIME STEP  352, STRESS PERIOD    1

 DRAWDOWN WILL BE SAVED ON UNIT   38 AT END OF TIME STEP  352, STRESS PERIOD    1
1
  VOLUMETRIC BUDGET FOR ENTIRE MODEL AT END OF TIME STEP  352, STRESS PERIOD   1
  ------------------------------------------------------------------------------

     CUMULATIVE VOLUMES      L**3       RATES FOR THIS TIME STEP      L**3/T
     ------------------                 ------------------------

           IN:                                      IN:
           ---                                      ---
             STORAGE =    15944467.0000               STORAGE =      147999.3438
       CONSTANT HEAD =           0.0000         CONSTANT HEAD =           0.0000
       RIVER LEAKAGE =     2036120.8750         RIVER LEAKAGE =         851.4663
            RECHARGE =    25226218.0000              RECHARGE =      152513.1719

            TOTAL IN =    43206808.0000              TOTAL IN =      301364.0000

          OUT:                                     OUT:
          ----                                     ----
             STORAGE =    19448520.0000               STORAGE =      117339.6172
       CONSTANT HEAD =           0.0000         CONSTANT HEAD =           0.0000
       RIVER LEAKAGE =    23739418.0000         RIVER LEAKAGE =      184024.3281
            RECHARGE =           0.0000              RECHARGE =           0.0000

           TOTAL OUT =    43187936.0000             TOTAL OUT =      301363.9375

            IN - OUT =       18872.0000              IN - OUT =       6.2500E-02

 PERCENT DISCREPANCY =           0.04     PERCENT DISCREPANCY =           0.00






         TIME SUMMARY AT END OF TIME STEP  352 IN STRESS PERIOD    1
                    SECONDS     MINUTES      HOURS       DAYS        YEARS
                    -----------------------------------------------------------
   TIME STEP LENGTH  86400.      1440.0      24.000      1.0000     2.73785E-03
 STRESS PERIOD TIME 3.04128E+07 5.06880E+05  8448.0      352.00     0.96372    
         TOTAL TIME 3.04128E+07 5.06880E+05  8448.0      352.00     0.96372    
1
 
 SOLVING FOR HEAD 
                                                   Max.-Head-Change                        Max.-Flux-Residual
  Residual-Control   Outer-Iter.   Inner-Iter.     Column Row Layer    Max.-Head-Change    Column Row Layer    Max.-Flux-Residual            L2-New               L2-Old           Solver-Max-Delh
          0                 1           2            11    6     1      -0.9151397527E+03      16    2    1       0.5186667310E+04      0.1800170813E+05      0.3145049471E+00     -0.9151397527E+03
          0                 2           2            11    6     1       0.7903479859E+02      37   11    1       0.6031150837E+03      0.1930740670E+04      0.1800170813E+05      0.7903479859E+02
          0                 3           2            11    6     1       0.3951781351E+01      37   11    1      -0.6243516709E+02      0.1164090292E+03      0.1930740670E+04      0.3951781351E+01
          0                 4           2            11    6     1       0.1975515291E+00      37   11    1      -0.3121749694E+01      0.5820280329E+01      0.1164090292E+03      0.1975515291E+00
          0                 5           2            11    6     1       0.9873724351E-02      37   11    1      -0.1560558342E+00      0.2911683969E+00      0.5820280329E+01      0.9873724351E-02

    ------------------------------------------------
       NWT REQUIRED            5 OUTER ITERATIONS 
       AND A TOTAL OF         10 INNER ITERATIONS.
    ------------------------------------------------

 OUTPUT CONTROL FOR STRESS PERIOD    1   TIME STEP  353
    SAVE HEAD FOR ALL LAYERS
    SAVE DRAWDOWN FOR ALL LAYERS
    SAVE BUDGET
    PRINT BUDGET
 UBDSV1 SAVING "         STORAGE" ON UNIT   9 AT TIME STEP353, STRESS PERIOD   1
 UBDSV2 SAVING "   CONSTANT HEAD" ON UNIT   9 AT TIME STEP353, STRESS PERIOD   1
 UBDSV1 SAVING "FLOW RIGHT FACE " ON UNIT   9 AT TIME STEP353, STRESS PERIOD   1
 UBDSV1 SAVING "FLOW FRONT FACE " ON UNIT   9 AT TIME STEP353, STRESS PERIOD   1
 UBDSV4 SAVING "   RIVER LEAKAGE" ON UNIT   9 AT TIME STEP353, STRESS PERIOD   1
 UBDSV3 SAVING "        RECHARGE" ON UNIT   9 AT TIME STEP353, STRESS PERIOD   1

 HEAD WILL BE SAVED ON UNIT 5037 AT END OF TIME STEP  353, STRESS PERIOD    1

 DRAWDOWN WILL BE SAVED ON UNIT   38 AT END OF TIME STEP  353, STRESS PERIOD    1
1
  VOLUMETRIC BUDGET FOR ENTIRE MODEL AT END OF TIME STEP  353, STRESS PERIOD   1
  ------------------------------------------------------------------------------

     CUMULATIVE VOLUMES      L**3       RATES FOR THIS TIME STEP      L**3/T
     ------------------                 ------------------------

           IN:                                      IN:
           ---                                      ---
             STORAGE =    16108020.0000               STORAGE =      163552.8906
       CONSTANT HEAD =           0.0000         CONSTANT HEAD =           0.0000
       RIVER LEAKAGE =     2037290.5000         RIVER LEAKAGE =        1169.6454
            RECHARGE =    25320126.0000              RECHARGE =       93908.9922

            TOTAL IN =    43465436.0000              TOTAL IN =      258631.5312

          OUT:                                     OUT:
          ----                                     ----
             STORAGE =    19546196.0000               STORAGE =       97675.3516
       CONSTANT HEAD =           0.0000         CONSTANT HEAD =           0.0000
       RIVER LEAKAGE =    23900374.0000         RIVER LEAKAGE =      160956.0938
            RECHARGE =           0.0000              RECHARGE =           0.0000

           TOTAL OUT =    43446568.0000             TOTAL OUT =      258631.4375

            IN - OUT =       18868.0000              IN - OUT =       9.3750E-02

 PERCENT DISCREPANCY =           0.04     PERCENT DISCREPANCY =           0.00






         TIME SUMMARY AT END OF TIME STEP  353 IN STRESS PERIOD    1
                    SECONDS     MINUTES      HOURS       DAYS        YEARS
                    -----------------------------------------------------------
   TIME STEP LENGTH  86400.      1440.0      24.000      1.0000     2.73785E-03
 STRESS PERIOD TIME 3.04992E+07 5.08320E+05  8472.0      353.00     0.96646    
         TOTAL TIME 3.04992E+07 5.08320E+05  8472.0      353.00     0.96646    
1
 
 SOLVING FOR HEAD 
                                                   Max.-Head-Change                        Max.-Flux-Residual
  Residual-Control   Outer-Iter.   Inner-Iter.     Column Row Layer    Max.-Head-Change    Column Row Layer    Max.-Flux-Residual            L2-New               L2-Old           Solver-Max-Delh
          0                 1           2            11    6     1      -0.7249358970E+03      16    2    1       0.4081080920E+04      0.1609368831E+05      0.2911683969E+00     -0.7249358970E+03
          0                 2           2            11    6     1       0.6260710407E+02      16    2    1      -0.4081080981E+03      0.1630370092E+04      0.1609368831E+05      0.6260710407E+02
          0                 3           2            11    6     1       0.3130386569E+01      16    2    1      -0.2040539456E+02      0.8272374224E+02      0.1630370092E+04      0.3130386569E+01
          0                 4           2            11    6     1       0.1564895925E+00      16    2    1      -0.1020065157E+01      0.4135396499E+01      0.8272374224E+02      0.1564895925E+00
          0                 5           2            11    6     1       0.7821428198E-02      16    2    1      -0.5098283073E-01      0.2066880656E+00      0.4135396499E+01      0.7821428198E-02

    ------------------------------------------------
       NWT REQUIRED            5 OUTER ITERATIONS 
       AND A TOTAL OF         10 INNER ITERATIONS.
    ------------------------------------------------

 OUTPUT CONTROL FOR STRESS PERIOD    1   TIME STEP  354
    SAVE HEAD FOR ALL LAYERS
    SAVE DRAWDOWN FOR ALL LAYERS
    SAVE BUDGET
    PRINT BUDGET
 UBDSV1 SAVING "         STORAGE" ON UNIT   9 AT TIME STEP354, STRESS PERIOD   1
 UBDSV2 SAVING "   CONSTANT HEAD" ON UNIT   9 AT TIME STEP354, STRESS PERIOD   1
 UBDSV1 SAVING "FLOW RIGHT FACE " ON UNIT   9 AT TIME STEP354, STRESS PERIOD   1
 UBDSV1 SAVING "FLOW FRONT FACE " ON UNIT   9 AT TIME STEP354, STRESS PERIOD   1
 UBDSV4 SAVING "   RIVER LEAKAGE" ON UNIT   9 AT TIME STEP354, STRESS PERIOD   1
 UBDSV3 SAVING "        RECHARGE" ON UNIT   9 AT TIME STEP354, STRESS PERIOD   1

 HEAD WILL BE SAVED ON UNIT 5037 AT END OF TIME STEP  354, STRESS PERIOD    1

 DRAWDOWN WILL BE SAVED ON UNIT   38 AT END OF TIME STEP  354, STRESS PERIOD    1
1
  VOLUMETRIC BUDGET FOR ENTIRE MODEL AT END OF TIME STEP  354, STRESS PERIOD   1
  ------------------------------------------------------------------------------

     CUMULATIVE VOLUMES      L**3       RATES FOR THIS TIME STEP      L**3/T
     ------------------                 ------------------------

           IN:                                      IN:
           ---                                      ---
             STORAGE =    16263556.0000               STORAGE =      155536.1562
       CONSTANT HEAD =           0.0000         CONSTANT HEAD =           0.0000
       RIVER LEAKAGE =     2039324.2500         RIVER LEAKAGE =        2033.7875
            RECHARGE =    25380550.0000              RECHARGE =       60424.4766

            TOTAL IN =    43683432.0000              TOTAL IN =      217994.4062

          OUT:                                     OUT:
          ----                                     ----
             STORAGE =    19630448.0000               STORAGE =       84252.2578
       CONSTANT HEAD =           0.0000         CONSTANT HEAD =           0.0000
       RIVER LEAKAGE =    24034116.0000         RIVER LEAKAGE =      133742.0938
            RECHARGE =           0.0000              RECHARGE =           0.0000

           TOTAL OUT =    43664564.0000             TOTAL OUT =      217994.3438

            IN - OUT =       18868.0000              IN - OUT =       6.2500E-02

 PERCENT DISCREPANCY =           0.04     PERCENT DISCREPANCY =           0.00






         TIME SUMMARY AT END OF TIME STEP  354 IN STRESS PERIOD    1
                    SECONDS     MINUTES      HOURS       DAYS        YEARS
                    -----------------------------------------------------------
   TIME STEP LENGTH  86400.      1440.0      24.000      1.0000     2.73785E-03
 STRESS PERIOD TIME 3.05856E+07 5.09760E+05  8496.0      354.00     0.96920    
         TOTAL TIME 3.05856E+07 5.09760E+05  8496.0      354.00     0.96920    
1
 
 SOLVING FOR HEAD 
                                                   Max.-Head-Change                        Max.-Flux-Residual
  Residual-Control   Outer-Iter.   Inner-Iter.     Column Row Layer    Max.-Head-Change    Column Row Layer    Max.-Flux-Residual            L2-New               L2-Old           Solver-Max-Delh
          0                 1           2            11    6     1      -0.5564077082E+03      17    2    1       0.3333284564E+04      0.1491785113E+05      0.2066880656E+00     -0.5564077082E+03
          0                 2           2            11    6     1       0.4805339491E+02      27   15    1       0.1089802608E+04      0.1919445128E+04      0.1491785113E+05      0.4805339491E+02
          0                 3           2            11    6     1       0.2402693819E+01      27   15    1      -0.1122675816E+03      0.1482737468E+03      0.1919445128E+04      0.2402693819E+01
          0                 4           2            11    6     1       0.1201118675E+00      27   15    1      -0.5613365280E+01      0.7413302467E+01      0.1482737468E+03      0.1201118675E+00
          0                 5           2            11    6     1       0.6003251284E-02      27   15    1      -0.2806114404E+00      0.3705713400E+00      0.7413302467E+01      0.6003251284E-02

    ------------------------------------------------
       NWT REQUIRED            5 OUTER ITERATIONS 
       AND A TOTAL OF         10 INNER ITERATIONS.
    ------------------------------------------------

 OUTPUT CONTROL FOR STRESS PERIOD    1   TIME STEP  355
    SAVE HEAD FOR ALL LAYERS
    SAVE DRAWDOWN FOR ALL LAYERS
    SAVE BUDGET
    PRINT BUDGET
 UBDSV1 SAVING "         STORAGE" ON UNIT   9 AT TIME STEP355, STRESS PERIOD   1
 UBDSV2 SAVING "   CONSTANT HEAD" ON UNIT   9 AT TIME STEP355, STRESS PERIOD   1
 UBDSV1 SAVING "FLOW RIGHT FACE " ON UNIT   9 AT TIME STEP355, STRESS PERIOD   1
 UBDSV1 SAVING "FLOW FRONT FACE " ON UNIT   9 AT TIME STEP355, STRESS PERIOD   1
 UBDSV4 SAVING "   RIVER LEAKAGE" ON UNIT   9 AT TIME STEP355, STRESS PERIOD   1
 UBDSV3 SAVING "        RECHARGE" ON UNIT   9 AT TIME STEP355, STRESS PERIOD   1

 HEAD WILL BE SAVED ON UNIT 5037 AT END OF TIME STEP  355, STRESS PERIOD    1

 DRAWDOWN WILL BE SAVED ON UNIT   38 AT END OF TIME STEP  355, STRESS PERIOD    1
1
  VOLUMETRIC BUDGET FOR ENTIRE MODEL AT END OF TIME STEP  355, STRESS PERIOD   1
  ------------------------------------------------------------------------------

     CUMULATIVE VOLUMES      L**3       RATES FOR THIS TIME STEP      L**3/T
     ------------------                 ------------------------

           IN:                                      IN:
           ---                                      ---
             STORAGE =    16412021.0000               STORAGE =      148465.0312
       CONSTANT HEAD =           0.0000         CONSTANT HEAD =           0.0000
       RIVER LEAKAGE =     2041988.1250         RIVER LEAKAGE =        2663.8538
            RECHARGE =    25421828.0000              RECHARGE =       41278.9102

            TOTAL IN =    43875840.0000              TOTAL IN =      192407.7969

          OUT:                                     OUT:
          ----                                     ----
             STORAGE =    19704940.0000               STORAGE =       74491.2500
       CONSTANT HEAD =           0.0000         CONSTANT HEAD =           0.0000
       RIVER LEAKAGE =    24152032.0000         RIVER LEAKAGE =      117916.5000
            RECHARGE =           0.0000              RECHARGE =           0.0000

           TOTAL OUT =    43856972.0000             TOTAL OUT =      192407.7500

            IN - OUT =       18868.0000              IN - OUT =       4.6875E-02

 PERCENT DISCREPANCY =           0.04     PERCENT DISCREPANCY =           0.00






         TIME SUMMARY AT END OF TIME STEP  355 IN STRESS PERIOD    1
                    SECONDS     MINUTES      HOURS       DAYS        YEARS
                    -----------------------------------------------------------
   TIME STEP LENGTH  86400.      1440.0      24.000      1.0000     2.73785E-03
 STRESS PERIOD TIME 3.06720E+07 5.11200E+05  8520.0      355.00     0.97194    
         TOTAL TIME 3.06720E+07 5.11200E+05  8520.0      355.00     0.97194    
1
 
 SOLVING FOR HEAD 
                                                   Max.-Head-Change                        Max.-Flux-Residual
  Residual-Control   Outer-Iter.   Inner-Iter.     Column Row Layer    Max.-Head-Change    Column Row Layer    Max.-Flux-Residual            L2-New               L2-Old           Solver-Max-Delh
          0                 1           2            11    6     1      -0.4190386753E+03      17    2    1       0.3489638136E+04      0.1442473438E+05      0.3705713400E+00     -0.4190386753E+03
          0                 2           2            11    6     1       0.3618970523E+02      29   18    1       0.1826983308E+04      0.2331616933E+04      0.1442473438E+05      0.3618970523E+02
          0                 3           2            11    6     1       0.1809503392E+01      29   18    1       0.9101971412E+02      0.1163224579E+03      0.2331616933E+04      0.1809503392E+01
          0                 4           2            11    6     1       0.9045798089E-01      29   18    1       0.4549256781E+01      0.5814329595E+01      0.1163224579E+03      0.9045798089E-01

    ------------------------------------------------
       NWT REQUIRED            4 OUTER ITERATIONS 
       AND A TOTAL OF          8 INNER ITERATIONS.
    ------------------------------------------------

 OUTPUT CONTROL FOR STRESS PERIOD    1   TIME STEP  356
    SAVE HEAD FOR ALL LAYERS
    SAVE DRAWDOWN FOR ALL LAYERS
    SAVE BUDGET
    PRINT BUDGET
 UBDSV1 SAVING "         STORAGE" ON UNIT   9 AT TIME STEP356, STRESS PERIOD   1
 UBDSV2 SAVING "   CONSTANT HEAD" ON UNIT   9 AT TIME STEP356, STRESS PERIOD   1
 UBDSV1 SAVING "FLOW RIGHT FACE " ON UNIT   9 AT TIME STEP356, STRESS PERIOD   1
 UBDSV1 SAVING "FLOW FRONT FACE " ON UNIT   9 AT TIME STEP356, STRESS PERIOD   1
 UBDSV4 SAVING "   RIVER LEAKAGE" ON UNIT   9 AT TIME STEP356, STRESS PERIOD   1
 UBDSV3 SAVING "        RECHARGE" ON UNIT   9 AT TIME STEP356, STRESS PERIOD   1

 HEAD WILL BE SAVED ON UNIT 5037 AT END OF TIME STEP  356, STRESS PERIOD    1

 DRAWDOWN WILL BE SAVED ON UNIT   38 AT END OF TIME STEP  356, STRESS PERIOD    1
1
  VOLUMETRIC BUDGET FOR ENTIRE MODEL AT END OF TIME STEP  356, STRESS PERIOD   1
  ------------------------------------------------------------------------------

     CUMULATIVE VOLUMES      L**3       RATES FOR THIS TIME STEP      L**3/T
     ------------------                 ------------------------

           IN:                                      IN:
           ---                                      ---
             STORAGE =    16561457.0000               STORAGE =      149436.1562
       CONSTANT HEAD =           0.0000         CONSTANT HEAD =           0.0000
       RIVER LEAKAGE =     2044408.6250         RIVER LEAKAGE =        2420.5127
            RECHARGE =    25452004.0000              RECHARGE =       30176.2207

            TOTAL IN =    44057872.0000              TOTAL IN =      182032.8906

          OUT:                                     OUT:
          ----                                     ----
             STORAGE =    19772018.0000               STORAGE =       67077.3203
       CONSTANT HEAD =           0.0000         CONSTANT HEAD =           0.0000
       RIVER LEAKAGE =    24266986.0000         RIVER LEAKAGE =      114953.8125
            RECHARGE =           0.0000              RECHARGE =           0.0000

           TOTAL OUT =    44039004.0000             TOTAL OUT =      182031.1250

            IN - OUT =       18868.0000              IN - OUT =           1.7656

 PERCENT DISCREPANCY =           0.04     PERCENT DISCREPANCY =           0.00






         TIME SUMMARY AT END OF TIME STEP  356 IN STRESS PERIOD    1
                    SECONDS     MINUTES      HOURS       DAYS        YEARS
                    -----------------------------------------------------------
   TIME STEP LENGTH  86400.      1440.0      24.000      1.0000     2.73785E-03
 STRESS PERIOD TIME 3.07584E+07 5.12640E+05  8544.0      356.00     0.97467    
         TOTAL TIME 3.07584E+07 5.12640E+05  8544.0      356.00     0.97467    
1
 
 SOLVING FOR HEAD 
                                                   Max.-Head-Change                        Max.-Flux-Residual
  Residual-Control   Outer-Iter.   Inner-Iter.     Column Row Layer    Max.-Head-Change    Column Row Layer    Max.-Flux-Residual            L2-New               L2-Old           Solver-Max-Delh
          0                 1           2            11    6     1      -0.3119746802E+03      17    2    1       0.3587179563E+04      0.1304953919E+05      0.5814329595E+01     -0.3119746802E+03
          0                 2           2            11    6     1       0.2694327291E+02      24    7    1       0.1302842654E+05      0.1415008392E+05      0.1304953919E+05      0.2694327291E+02
          0                 3           2            11    6     1       0.1347177144E+01      24    7    1       0.6286250603E+03      0.6854146359E+03      0.1415008392E+05      0.1347177144E+01
          0                 4           2            11    6     1       0.6734606017E-01      24    7    1       0.3138364371E+02      0.3422308711E+02      0.6854146359E+03      0.6734606017E-01

    ------------------------------------------------
       NWT REQUIRED            4 OUTER ITERATIONS 
       AND A TOTAL OF          8 INNER ITERATIONS.
    ------------------------------------------------

 OUTPUT CONTROL FOR STRESS PERIOD    1   TIME STEP  357
    SAVE HEAD FOR ALL LAYERS
    SAVE DRAWDOWN FOR ALL LAYERS
    SAVE BUDGET
    PRINT BUDGET
 UBDSV1 SAVING "         STORAGE" ON UNIT   9 AT TIME STEP357, STRESS PERIOD   1
 UBDSV2 SAVING "   CONSTANT HEAD" ON UNIT   9 AT TIME STEP357, STRESS PERIOD   1
 UBDSV1 SAVING "FLOW RIGHT FACE " ON UNIT   9 AT TIME STEP357, STRESS PERIOD   1
 UBDSV1 SAVING "FLOW FRONT FACE " ON UNIT   9 AT TIME STEP357, STRESS PERIOD   1
 UBDSV4 SAVING "   RIVER LEAKAGE" ON UNIT   9 AT TIME STEP357, STRESS PERIOD   1
 UBDSV3 SAVING "        RECHARGE" ON UNIT   9 AT TIME STEP357, STRESS PERIOD   1

 HEAD WILL BE SAVED ON UNIT 5037 AT END OF TIME STEP  357, STRESS PERIOD    1

 DRAWDOWN WILL BE SAVED ON UNIT   38 AT END OF TIME STEP  357, STRESS PERIOD    1
1
  VOLUMETRIC BUDGET FOR ENTIRE MODEL AT END OF TIME STEP  357, STRESS PERIOD   1
  ------------------------------------------------------------------------------

     CUMULATIVE VOLUMES      L**3       RATES FOR THIS TIME STEP      L**3/T
     ------------------                 ------------------------

           IN:                                      IN:
           ---                                      ---
             STORAGE =    16696756.0000               STORAGE =      135299.0469
       CONSTANT HEAD =           0.0000         CONSTANT HEAD =           0.0000
       RIVER LEAKAGE =     2047493.6250         RIVER LEAKAGE =        3085.0596
            RECHARGE =    25475500.0000              RECHARGE =       23495.7500

            TOTAL IN =    44219752.0000              TOTAL IN =      161879.8594

          OUT:                                     OUT:
          ----                                     ----
             STORAGE =    19833298.0000               STORAGE =       61280.6172
       CONSTANT HEAD =           0.0000         CONSTANT HEAD =           0.0000
       RIVER LEAKAGE =    24367582.0000         RIVER LEAKAGE =      100595.8984
            RECHARGE =           0.0000              RECHARGE =           0.0000

           TOTAL OUT =    44200880.0000             TOTAL OUT =      161876.5156

            IN - OUT =       18872.0000              IN - OUT =           3.3438

 PERCENT DISCREPANCY =           0.04     PERCENT DISCREPANCY =           0.00






         TIME SUMMARY AT END OF TIME STEP  357 IN STRESS PERIOD    1
                    SECONDS     MINUTES      HOURS       DAYS        YEARS
                    -----------------------------------------------------------
   TIME STEP LENGTH  86400.      1440.0      24.000      1.0000     2.73785E-03
 STRESS PERIOD TIME 3.08448E+07 5.14080E+05  8568.0      357.00     0.97741    
         TOTAL TIME 3.08448E+07 5.14080E+05  8568.0      357.00     0.97741    
1
 
 SOLVING FOR HEAD 
                                                   Max.-Head-Change                        Max.-Flux-Residual
  Residual-Control   Outer-Iter.   Inner-Iter.     Column Row Layer    Max.-Head-Change    Column Row Layer    Max.-Flux-Residual            L2-New               L2-Old           Solver-Max-Delh
          0                 1           2            11    6     1      -0.2307610406E+03      17    2    1       0.3638624535E+04      0.1224594484E+05      0.3422308711E+02     -0.2307610406E+03
          0                 2           2            11    6     1       0.1992936340E+02      15    8    1       0.9837163196E+04      0.9913045543E+04      0.1224594484E+05      0.1992936340E+02
          0                 3           2            11    6     1       0.9964781544E+00      17    2    1       0.5813555375E+04      0.5833860046E+04      0.9913045543E+04      0.9964781544E+00
          0                 4           2            17    2     1       0.8226979313E-01      17    2    1       0.1029983783E+04      0.1030272037E+04      0.5833860046E+04      0.8226979313E-01
          0                 5           2            17    2     1       0.1459449927E-01      17    2    1       0.1827559493E+03      0.1827605316E+03      0.1030272037E+04      0.1459449927E-01

    ------------------------------------------------
       NWT REQUIRED            5 OUTER ITERATIONS 
       AND A TOTAL OF         10 INNER ITERATIONS.
    ------------------------------------------------

 OUTPUT CONTROL FOR STRESS PERIOD    1   TIME STEP  358
    SAVE HEAD FOR ALL LAYERS
    SAVE DRAWDOWN FOR ALL LAYERS
    SAVE BUDGET
    PRINT BUDGET
 UBDSV1 SAVING "         STORAGE" ON UNIT   9 AT TIME STEP358, STRESS PERIOD   1
 UBDSV2 SAVING "   CONSTANT HEAD" ON UNIT   9 AT TIME STEP358, STRESS PERIOD   1
 UBDSV1 SAVING "FLOW RIGHT FACE " ON UNIT   9 AT TIME STEP358, STRESS PERIOD   1
 UBDSV1 SAVING "FLOW FRONT FACE " ON UNIT   9 AT TIME STEP358, STRESS PERIOD   1
 UBDSV4 SAVING "   RIVER LEAKAGE" ON UNIT   9 AT TIME STEP358, STRESS PERIOD   1
 UBDSV3 SAVING "        RECHARGE" ON UNIT   9 AT TIME STEP358, STRESS PERIOD   1

 HEAD WILL BE SAVED ON UNIT 5037 AT END OF TIME STEP  358, STRESS PERIOD    1

 DRAWDOWN WILL BE SAVED ON UNIT   38 AT END OF TIME STEP  358, STRESS PERIOD    1
1
  VOLUMETRIC BUDGET FOR ENTIRE MODEL AT END OF TIME STEP  358, STRESS PERIOD   1
  ------------------------------------------------------------------------------

     CUMULATIVE VOLUMES      L**3       RATES FOR THIS TIME STEP      L**3/T
     ------------------                 ------------------------

           IN:                                      IN:
           ---                                      ---
             STORAGE =    16823314.0000               STORAGE =      126558.3281
       CONSTANT HEAD =           0.0000         CONSTANT HEAD =           0.0000
       RIVER LEAKAGE =     2050876.8750         RIVER LEAKAGE =        3383.2913
            RECHARGE =    25494776.0000              RECHARGE =       19276.9805

            TOTAL IN =    44368968.0000              TOTAL IN =      149218.5938

          OUT:                                     OUT:
          ----                                     ----
             STORAGE =    19889788.0000               STORAGE =       56489.8789
       CONSTANT HEAD =           0.0000         CONSTANT HEAD =           0.0000
       RIVER LEAKAGE =    24460278.0000         RIVER LEAKAGE =       92696.3359
            RECHARGE =           0.0000              RECHARGE =           0.0000

           TOTAL OUT =    44350064.0000             TOTAL OUT =      149186.2188

            IN - OUT =       18904.0000              IN - OUT =          32.3750

 PERCENT DISCREPANCY =           0.04     PERCENT DISCREPANCY =           0.02






         TIME SUMMARY AT END OF TIME STEP  358 IN STRESS PERIOD    1
                    SECONDS     MINUTES      HOURS       DAYS        YEARS
                    -----------------------------------------------------------
   TIME STEP LENGTH  86400.      1440.0      24.000      1.0000     2.73785E-03
 STRESS PERIOD TIME 3.09312E+07 5.15520E+05  8592.0      358.00     0.98015    
         TOTAL TIME 3.09312E+07 5.15520E+05  8592.0      358.00     0.98015    
1
 
 SOLVING FOR HEAD 
                                                   Max.-Head-Change                        Max.-Flux-Residual
  Residual-Control   Outer-Iter.   Inner-Iter.     Column Row Layer    Max.-Head-Change    Column Row Layer    Max.-Flux-Residual            L2-New               L2-Old           Solver-Max-Delh
          0                 1           2            11    6     1      -0.1701865486E+03      17    2    1       0.3656333243E+04      0.1158270861E+05      0.3243414387E+02     -0.1701865486E+03
          0                 2           2            11    6     1       0.1470727385E+02      17    2    1       0.3350951258E+04      0.3628040505E+04      0.1158270861E+05      0.1470727385E+02
          0                 3           2            17    2     1      -0.1085113339E+01      17    2    1      -0.3407170694E+03      0.3507721644E+03      0.3628040505E+04     -0.1085113339E+01
          0                 4           2            17    2     1      -0.5425621059E-01      17    2    1      -0.1703582610E+02      0.1754109326E+02      0.3507721644E+03     -0.5425621059E-01

    ------------------------------------------------
       NWT REQUIRED            4 OUTER ITERATIONS 
       AND A TOTAL OF          8 INNER ITERATIONS.
    ------------------------------------------------

 OUTPUT CONTROL FOR STRESS PERIOD    1   TIME STEP  359
    SAVE HEAD FOR ALL LAYERS
    SAVE DRAWDOWN FOR ALL LAYERS
    SAVE BUDGET
    PRINT BUDGET
 UBDSV1 SAVING "         STORAGE" ON UNIT   9 AT TIME STEP359, STRESS PERIOD   1
 UBDSV2 SAVING "   CONSTANT HEAD" ON UNIT   9 AT TIME STEP359, STRESS PERIOD   1
 UBDSV1 SAVING "FLOW RIGHT FACE " ON UNIT   9 AT TIME STEP359, STRESS PERIOD   1
 UBDSV1 SAVING "FLOW FRONT FACE " ON UNIT   9 AT TIME STEP359, STRESS PERIOD   1
 UBDSV4 SAVING "   RIVER LEAKAGE" ON UNIT   9 AT TIME STEP359, STRESS PERIOD   1
 UBDSV3 SAVING "        RECHARGE" ON UNIT   9 AT TIME STEP359, STRESS PERIOD   1

 HEAD WILL BE SAVED ON UNIT 5037 AT END OF TIME STEP  359, STRESS PERIOD    1

 DRAWDOWN WILL BE SAVED ON UNIT   38 AT END OF TIME STEP  359, STRESS PERIOD    1
1
  VOLUMETRIC BUDGET FOR ENTIRE MODEL AT END OF TIME STEP  359, STRESS PERIOD   1
  ------------------------------------------------------------------------------

     CUMULATIVE VOLUMES      L**3       RATES FOR THIS TIME STEP      L**3/T
     ------------------                 ------------------------

           IN:                                      IN:
           ---                                      ---
             STORAGE =    16942294.0000               STORAGE =      118980.9766
       CONSTANT HEAD =           0.0000         CONSTANT HEAD =           0.0000
       RIVER LEAKAGE =     2054471.5000         RIVER LEAKAGE =        3594.6567
            RECHARGE =    25511234.0000              RECHARGE =       16458.2539

            TOTAL IN =    44508000.0000              TOTAL IN =      139033.8906

          OUT:                                     OUT:
          ----                                     ----
             STORAGE =    19941716.0000               STORAGE =       51928.4062
       CONSTANT HEAD =           0.0000         CONSTANT HEAD =           0.0000
       RIVER LEAKAGE =    24547384.0000         RIVER LEAKAGE =       87105.0781
            RECHARGE =           0.0000              RECHARGE =           0.0000

           TOTAL OUT =    44489100.0000             TOTAL OUT =      139033.4844

            IN - OUT =       18900.0000              IN - OUT =           0.4062

 PERCENT DISCREPANCY =           0.04     PERCENT DISCREPANCY =           0.00






         TIME SUMMARY AT END OF TIME STEP  359 IN STRESS PERIOD    1
                    SECONDS     MINUTES      HOURS       DAYS        YEARS
                    -----------------------------------------------------------
   TIME STEP LENGTH  86400.      1440.0      24.000      1.0000     2.73785E-03
 STRESS PERIOD TIME 3.10176E+07 5.16960E+05  8616.0      359.00     0.98289    
         TOTAL TIME 3.10176E+07 5.16960E+05  8616.0      359.00     0.98289    
1
 
 SOLVING FOR HEAD 
                                                   Max.-Head-Change                        Max.-Flux-Residual
  Residual-Control   Outer-Iter.   Inner-Iter.     Column Row Layer    Max.-Head-Change    Column Row Layer    Max.-Flux-Residual            L2-New               L2-Old           Solver-Max-Delh
          0                 1           2            11    6     1      -0.1254165577E+03      17    2    1       0.2932084421E+04      0.1079141260E+05      0.1754109326E+02     -0.1254165577E+03
          0                 2           2            11    6     1       0.1083143041E+02      16    8    1       0.8502255693E+04      0.1064744283E+05      0.1079141260E+05      0.1083143041E+02
          0                 3           2            11    6     1       0.5415769555E+00      16    8    1       0.4170850235E+03      0.5383081502E+03      0.1064744283E+05      0.5415769555E+00
          0                 4           2            11    6     1       0.2707370327E-01      16    8    1       0.2083081162E+02      0.2689049720E+02      0.5383081502E+03      0.2707370327E-01

    ------------------------------------------------
       NWT REQUIRED            4 OUTER ITERATIONS 
       AND A TOTAL OF          8 INNER ITERATIONS.
    ------------------------------------------------

 OUTPUT CONTROL FOR STRESS PERIOD    1   TIME STEP  360
    SAVE HEAD FOR ALL LAYERS
    SAVE DRAWDOWN FOR ALL LAYERS
    SAVE BUDGET
    PRINT BUDGET
 UBDSV1 SAVING "         STORAGE" ON UNIT   9 AT TIME STEP360, STRESS PERIOD   1
 UBDSV2 SAVING "   CONSTANT HEAD" ON UNIT   9 AT TIME STEP360, STRESS PERIOD   1
 UBDSV1 SAVING "FLOW RIGHT FACE " ON UNIT   9 AT TIME STEP360, STRESS PERIOD   1
 UBDSV1 SAVING "FLOW FRONT FACE " ON UNIT   9 AT TIME STEP360, STRESS PERIOD   1
 UBDSV4 SAVING "   RIVER LEAKAGE" ON UNIT   9 AT TIME STEP360, STRESS PERIOD   1
 UBDSV3 SAVING "        RECHARGE" ON UNIT   9 AT TIME STEP360, STRESS PERIOD   1

 HEAD WILL BE SAVED ON UNIT 5037 AT END OF TIME STEP  360, STRESS PERIOD    1

 DRAWDOWN WILL BE SAVED ON UNIT   38 AT END OF TIME STEP  360, STRESS PERIOD    1
1
  VOLUMETRIC BUDGET FOR ENTIRE MODEL AT END OF TIME STEP  360, STRESS PERIOD   1
  ------------------------------------------------------------------------------

     CUMULATIVE VOLUMES      L**3       RATES FOR THIS TIME STEP      L**3/T
     ------------------                 ------------------------

           IN:                                      IN:
           ---                                      ---
             STORAGE =    17054708.0000               STORAGE =      112413.7812
       CONSTANT HEAD =           0.0000         CONSTANT HEAD =           0.0000
       RIVER LEAKAGE =     2058207.5000         RIVER LEAKAGE =        3736.0264
            RECHARGE =    25525694.0000              RECHARGE =       14460.0996

            TOTAL IN =    44638608.0000              TOTAL IN =      130609.9062

          OUT:                                     OUT:
          ----                                     ----
             STORAGE =    19989684.0000               STORAGE =       47968.4922
       CONSTANT HEAD =           0.0000         CONSTANT HEAD =           0.0000
       RIVER LEAKAGE =    24630022.0000         RIVER LEAKAGE =       82638.7891
            RECHARGE =           0.0000              RECHARGE =           0.0000

           TOTAL OUT =    44619704.0000             TOTAL OUT =      130607.2812

            IN - OUT =       18904.0000              IN - OUT =           2.6250

 PERCENT DISCREPANCY =           0.04     PERCENT DISCREPANCY =           0.00






         TIME SUMMARY AT END OF TIME STEP  360 IN STRESS PERIOD    1
                    SECONDS     MINUTES      HOURS       DAYS        YEARS
                    -----------------------------------------------------------
   TIME STEP LENGTH  86400.      1440.0      24.000      1.0000     2.73785E-03
 STRESS PERIOD TIME 3.11040E+07 5.18400E+05  8640.0      360.00     0.98563    
         TOTAL TIME 3.11040E+07 5.18400E+05  8640.0      360.00     0.98563    
1
 
 SOLVING FOR HEAD 
                                                   Max.-Head-Change                        Max.-Flux-Residual
  Residual-Control   Outer-Iter.   Inner-Iter.     Column Row Layer    Max.-Head-Change    Column Row Layer    Max.-Flux-Residual            L2-New               L2-Old           Solver-Max-Delh
          0                 1           2            11    6     1      -0.9257957133E+02      17    2    1       0.2342765952E+04      0.1007175867E+05      0.2689049720E+02     -0.9257957133E+02
          0                 2           2            13    4     1       0.9810733080E+01      22   21    1       0.4986767156E+03      0.1145111724E+04      0.1007175867E+05      0.9810733080E+01
          0                 3           2            13    4     1       0.4905327573E+00      22   21    1      -0.5053555141E+02      0.7247744081E+02      0.1145111724E+04      0.4905327573E+00
          0                 4           2            13    4     1       0.2452197823E-01      22   21    1      -0.2526779210E+01      0.3619028922E+01      0.7247744081E+02      0.2452197823E-01

    ------------------------------------------------
       NWT REQUIRED            4 OUTER ITERATIONS 
       AND A TOTAL OF          8 INNER ITERATIONS.
    ------------------------------------------------

 OUTPUT CONTROL FOR STRESS PERIOD    1   TIME STEP  361
    SAVE HEAD FOR ALL LAYERS
    SAVE DRAWDOWN FOR ALL LAYERS
    SAVE BUDGET
    PRINT BUDGET
 UBDSV1 SAVING "         STORAGE" ON UNIT   9 AT TIME STEP361, STRESS PERIOD   1
 UBDSV2 SAVING "   CONSTANT HEAD" ON UNIT   9 AT TIME STEP361, STRESS PERIOD   1
 UBDSV1 SAVING "FLOW RIGHT FACE " ON UNIT   9 AT TIME STEP361, STRESS PERIOD   1
 UBDSV1 SAVING "FLOW FRONT FACE " ON UNIT   9 AT TIME STEP361, STRESS PERIOD   1
 UBDSV4 SAVING "   RIVER LEAKAGE" ON UNIT   9 AT TIME STEP361, STRESS PERIOD   1
 UBDSV3 SAVING "        RECHARGE" ON UNIT   9 AT TIME STEP361, STRESS PERIOD   1

 HEAD WILL BE SAVED ON UNIT 5037 AT END OF TIME STEP  361, STRESS PERIOD    1

 DRAWDOWN WILL BE SAVED ON UNIT   38 AT END OF TIME STEP  361, STRESS PERIOD    1
1
  VOLUMETRIC BUDGET FOR ENTIRE MODEL AT END OF TIME STEP  361, STRESS PERIOD   1
  ------------------------------------------------------------------------------

     CUMULATIVE VOLUMES      L**3       RATES FOR THIS TIME STEP      L**3/T
     ------------------                 ------------------------

           IN:                                      IN:
           ---                                      ---
             STORAGE =    17161250.0000               STORAGE =      106542.9219
       CONSTANT HEAD =           0.0000         CONSTANT HEAD =           0.0000
       RIVER LEAKAGE =     2062071.7500         RIVER LEAKAGE =        3864.2947
            RECHARGE =    25538656.0000              RECHARGE =       12961.9795

            TOTAL IN =    44761976.0000              TOTAL IN =      123369.1953

          OUT:                                     OUT:
          ----                                     ----
             STORAGE =    20034156.0000               STORAGE =       44472.8477
       CONSTANT HEAD =           0.0000         CONSTANT HEAD =           0.0000
       RIVER LEAKAGE =    24708918.0000         RIVER LEAKAGE =       78895.5938
            RECHARGE =           0.0000              RECHARGE =           0.0000

           TOTAL OUT =    44743072.0000             TOTAL OUT =      123368.4375

            IN - OUT =       18904.0000              IN - OUT =           0.7578

 PERCENT DISCREPANCY =           0.04     PERCENT DISCREPANCY =           0.00






         TIME SUMMARY AT END OF TIME STEP  361 IN STRESS PERIOD    1
                    SECONDS     MINUTES      HOURS       DAYS        YEARS
                    -----------------------------------------------------------
   TIME STEP LENGTH  86400.      1440.0      24.000      1.0000     2.73785E-03
 STRESS PERIOD TIME 3.11904E+07 5.19840E+05  8664.0      361.00     0.98836    
         TOTAL TIME 3.11904E+07 5.19840E+05  8664.0      361.00     0.98836    
1
 
 SOLVING FOR HEAD 
                                                   Max.-Head-Change                        Max.-Flux-Residual
  Residual-Control   Outer-Iter.   Inner-Iter.     Column Row Layer    Max.-Head-Change    Column Row Layer    Max.-Flux-Residual            L2-New               L2-Old           Solver-Max-Delh
          0                 1           2            11    6     1      -0.6858300906E+02       8    8    1       0.2100964329E+04      0.9441741369E+04      0.3619028922E+01     -0.6858300906E+02
          0                 2           2            11    6     1       0.5923078303E+01      28   14    1       0.1040466834E+04      0.1712220441E+04      0.9441741369E+04      0.5923078303E+01
          0                 3           2            11    6     1       0.2961568825E+00      28   14    1       0.5190400808E+02      0.8558395973E+02      0.1712220441E+04      0.2961568825E+00
          0                 4           2            11    6     1       0.1480503089E-01      28   14    1       0.2594383293E+01      0.4278748260E+01      0.8558395973E+02      0.1480503089E-01

    ------------------------------------------------
       NWT REQUIRED            4 OUTER ITERATIONS 
       AND A TOTAL OF          8 INNER ITERATIONS.
    ------------------------------------------------

 OUTPUT CONTROL FOR STRESS PERIOD    1   TIME STEP  362
    SAVE HEAD FOR ALL LAYERS
    SAVE DRAWDOWN FOR ALL LAYERS
    SAVE BUDGET
    PRINT BUDGET
 UBDSV1 SAVING "         STORAGE" ON UNIT   9 AT TIME STEP362, STRESS PERIOD   1
 UBDSV2 SAVING "   CONSTANT HEAD" ON UNIT   9 AT TIME STEP362, STRESS PERIOD   1
 UBDSV1 SAVING "FLOW RIGHT FACE " ON UNIT   9 AT TIME STEP362, STRESS PERIOD   1
 UBDSV1 SAVING "FLOW FRONT FACE " ON UNIT   9 AT TIME STEP362, STRESS PERIOD   1
 UBDSV4 SAVING "   RIVER LEAKAGE" ON UNIT   9 AT TIME STEP362, STRESS PERIOD   1
 UBDSV3 SAVING "        RECHARGE" ON UNIT   9 AT TIME STEP362, STRESS PERIOD   1

 HEAD WILL BE SAVED ON UNIT 5037 AT END OF TIME STEP  362, STRESS PERIOD    1

 DRAWDOWN WILL BE SAVED ON UNIT   38 AT END OF TIME STEP  362, STRESS PERIOD    1
1
  VOLUMETRIC BUDGET FOR ENTIRE MODEL AT END OF TIME STEP  362, STRESS PERIOD   1
  ------------------------------------------------------------------------------

     CUMULATIVE VOLUMES      L**3       RATES FOR THIS TIME STEP      L**3/T
     ------------------                 ------------------------

           IN:                                      IN:
           ---                                      ---
             STORAGE =    17262486.0000               STORAGE =      101235.2188
       CONSTANT HEAD =           0.0000         CONSTANT HEAD =           0.0000
       RIVER LEAKAGE =     2066071.2500         RIVER LEAKAGE =        3999.4785
            RECHARGE =    25550440.0000              RECHARGE =       11783.0996

            TOTAL IN =    44879000.0000              TOTAL IN =      117017.7969

          OUT:                                     OUT:
          ----                                     ----
             STORAGE =    20075496.0000               STORAGE =       41339.0273
       CONSTANT HEAD =           0.0000         CONSTANT HEAD =           0.0000
       RIVER LEAKAGE =    24784596.0000         RIVER LEAKAGE =       75677.7344
            RECHARGE =           0.0000              RECHARGE =           0.0000

           TOTAL OUT =    44860092.0000             TOTAL OUT =      117016.7656

            IN - OUT =       18908.0000              IN - OUT =           1.0312

 PERCENT DISCREPANCY =           0.04     PERCENT DISCREPANCY =           0.00






         TIME SUMMARY AT END OF TIME STEP  362 IN STRESS PERIOD    1
                    SECONDS     MINUTES      HOURS       DAYS        YEARS
                    -----------------------------------------------------------
   TIME STEP LENGTH  86400.      1440.0      24.000      1.0000     2.73785E-03
 STRESS PERIOD TIME 3.12768E+07 5.21280E+05  8688.0      362.00     0.99110    
         TOTAL TIME 3.12768E+07 5.21280E+05  8688.0      362.00     0.99110    
1
 
 SOLVING FOR HEAD 
                                                   Max.-Head-Change                        Max.-Flux-Residual
  Residual-Control   Outer-Iter.   Inner-Iter.     Column Row Layer    Max.-Head-Change    Column Row Layer    Max.-Flux-Residual            L2-New               L2-Old           Solver-Max-Delh
          0                 1           2            11    6     1      -0.5107711460E+02       8    8    1       0.2049003966E+04      0.9758110248E+04      0.4278748260E+01     -0.5107711460E+02
          1                 1           0            11    6     1      -0.3575397961E+02      28   10    1       0.7924713071E+04      0.1239609078E+05      0.9758110248E+04     -0.5107711460E+02
          0                 2           2            11    6     1      -0.1174773704E+02      28   10    1       0.3917552740E+04      0.6282853515E+04      0.1239609078E+05     -0.1174773704E+02
          0                 3           2            11    6     1       0.1014618174E+01      14    6    1       0.1712152241E+04      0.1751109972E+04      0.6282853515E+04      0.1014618174E+01
          0                 4           2            11    6     1       0.5073140348E-01      14    6    1       0.8527075266E+02      0.8722520299E+02      0.1751109972E+04      0.5073140348E-01

    ------------------------------------------------
       NWT REQUIRED            4 OUTER ITERATIONS 
       AND A TOTAL OF          8 INNER ITERATIONS.
    ------------------------------------------------

 OUTPUT CONTROL FOR STRESS PERIOD    1   TIME STEP  363
    SAVE HEAD FOR ALL LAYERS
    SAVE DRAWDOWN FOR ALL LAYERS
    SAVE BUDGET
    PRINT BUDGET
 UBDSV1 SAVING "         STORAGE" ON UNIT   9 AT TIME STEP363, STRESS PERIOD   1
 UBDSV2 SAVING "   CONSTANT HEAD" ON UNIT   9 AT TIME STEP363, STRESS PERIOD   1
 UBDSV1 SAVING "FLOW RIGHT FACE " ON UNIT   9 AT TIME STEP363, STRESS PERIOD   1
 UBDSV1 SAVING "FLOW FRONT FACE " ON UNIT   9 AT TIME STEP363, STRESS PERIOD   1
 UBDSV4 SAVING "   RIVER LEAKAGE" ON UNIT   9 AT TIME STEP363, STRESS PERIOD   1
 UBDSV3 SAVING "        RECHARGE" ON UNIT   9 AT TIME STEP363, STRESS PERIOD   1

 HEAD WILL BE SAVED ON UNIT 5037 AT END OF TIME STEP  363, STRESS PERIOD    1

 DRAWDOWN WILL BE SAVED ON UNIT   38 AT END OF TIME STEP  363, STRESS PERIOD    1
1
  VOLUMETRIC BUDGET FOR ENTIRE MODEL AT END OF TIME STEP  363, STRESS PERIOD   1
  ------------------------------------------------------------------------------

     CUMULATIVE VOLUMES      L**3       RATES FOR THIS TIME STEP      L**3/T
     ------------------                 ------------------------

           IN:                                      IN:
           ---                                      ---
             STORAGE =    17369218.0000               STORAGE =      106732.8203
       CONSTANT HEAD =           0.0000         CONSTANT HEAD =           0.0000
       RIVER LEAKAGE =     2069059.1250         RIVER LEAKAGE =        2987.8970
            RECHARGE =    25561258.0000              RECHARGE =       10818.7881

            TOTAL IN =    44999536.0000              TOTAL IN =      120539.5078

          OUT:                                     OUT:
          ----                                     ----
             STORAGE =    20113980.0000               STORAGE =       38483.1484
       CONSTANT HEAD =           0.0000         CONSTANT HEAD =           0.0000
       RIVER LEAKAGE =    24866640.0000         RIVER LEAKAGE =       82044.7578
            RECHARGE =           0.0000              RECHARGE =           0.0000

           TOTAL OUT =    44980620.0000             TOTAL OUT =      120527.9062

            IN - OUT =       18916.0000              IN - OUT =          11.6016

 PERCENT DISCREPANCY =           0.04     PERCENT DISCREPANCY =           0.01






         TIME SUMMARY AT END OF TIME STEP  363 IN STRESS PERIOD    1
                    SECONDS     MINUTES      HOURS       DAYS        YEARS
                    -----------------------------------------------------------
   TIME STEP LENGTH  86400.      1440.0      24.000      1.0000     2.73785E-03
 STRESS PERIOD TIME 3.13632E+07 5.22720E+05  8712.0      363.00     0.99384    
         TOTAL TIME 3.13632E+07 5.22720E+05  8712.0      363.00     0.99384    
1
 
 SOLVING FOR HEAD 
                                                   Max.-Head-Change                        Max.-Flux-Residual
  Residual-Control   Outer-Iter.   Inner-Iter.     Column Row Layer    Max.-Head-Change    Column Row Layer    Max.-Flux-Residual            L2-New               L2-Old           Solver-Max-Delh
          0                 1           2            11    6     1      -0.3829583668E+02       8    8    1       0.1991698420E+04      0.8472402257E+04      0.8722520299E+02     -0.3829583668E+02
          0                 2           2            33    9     1       0.5096841285E+01      34   14    1       0.6750245208E+04      0.6804611946E+04      0.8472402257E+04      0.5096841285E+01
          0                 3           2            33    9     1       0.2548446177E+00       8    8    1       0.1888239542E+04      0.1917937297E+04      0.6804611946E+04      0.2548446177E+00
          0                 4           2             8    8     1       0.2662488290E-01       8    8    1       0.3350806396E+03      0.3355021977E+03      0.1917937297E+04      0.2662488290E-01

    ------------------------------------------------
       NWT REQUIRED            4 OUTER ITERATIONS 
       AND A TOTAL OF          8 INNER ITERATIONS.
    ------------------------------------------------

 OUTPUT CONTROL FOR STRESS PERIOD    1   TIME STEP  364
    SAVE HEAD FOR ALL LAYERS
    SAVE DRAWDOWN FOR ALL LAYERS
    SAVE BUDGET
    PRINT BUDGET
 UBDSV1 SAVING "         STORAGE" ON UNIT   9 AT TIME STEP364, STRESS PERIOD   1
 UBDSV2 SAVING "   CONSTANT HEAD" ON UNIT   9 AT TIME STEP364, STRESS PERIOD   1
 UBDSV1 SAVING "FLOW RIGHT FACE " ON UNIT   9 AT TIME STEP364, STRESS PERIOD   1
 UBDSV1 SAVING "FLOW FRONT FACE " ON UNIT   9 AT TIME STEP364, STRESS PERIOD   1
 UBDSV4 SAVING "   RIVER LEAKAGE" ON UNIT   9 AT TIME STEP364, STRESS PERIOD   1
 UBDSV3 SAVING "        RECHARGE" ON UNIT   9 AT TIME STEP364, STRESS PERIOD   1

 HEAD WILL BE SAVED ON UNIT 5037 AT END OF TIME STEP  364, STRESS PERIOD    1

 DRAWDOWN WILL BE SAVED ON UNIT   38 AT END OF TIME STEP  364, STRESS PERIOD    1
1
  VOLUMETRIC BUDGET FOR ENTIRE MODEL AT END OF TIME STEP  364, STRESS PERIOD   1
  ------------------------------------------------------------------------------

     CUMULATIVE VOLUMES      L**3       RATES FOR THIS TIME STEP      L**3/T
     ------------------                 ------------------------

           IN:                                      IN:
           ---                                      ---
             STORAGE =    17464014.0000               STORAGE =       94795.3125
       CONSTANT HEAD =           0.0000         CONSTANT HEAD =           0.0000
       RIVER LEAKAGE =     2072812.6250         RIVER LEAKAGE =        3753.5195
            RECHARGE =    25571264.0000              RECHARGE =       10006.3799

            TOTAL IN =    45108088.0000              TOTAL IN =      108555.2109

          OUT:                                     OUT:
          ----                                     ----
             STORAGE =    20149852.0000               STORAGE =       35872.2422
       CONSTANT HEAD =           0.0000         CONSTANT HEAD =           0.0000
       RIVER LEAKAGE =    24939262.0000         RIVER LEAKAGE =       72622.1562
            RECHARGE =           0.0000              RECHARGE =           0.0000

           TOTAL OUT =    45089112.0000             TOTAL OUT =      108494.3984

            IN - OUT =       18976.0000              IN - OUT =          60.8125

 PERCENT DISCREPANCY =           0.04     PERCENT DISCREPANCY =           0.06






         TIME SUMMARY AT END OF TIME STEP  364 IN STRESS PERIOD    1
                    SECONDS     MINUTES      HOURS       DAYS        YEARS
                    -----------------------------------------------------------
   TIME STEP LENGTH  86400.      1440.0      24.000      1.0000     2.73785E-03
 STRESS PERIOD TIME 3.14496E+07 5.24160E+05  8736.0      364.00     0.99658    
         TOTAL TIME 3.14496E+07 5.24160E+05  8736.0      364.00     0.99658    
1
 
 SOLVING FOR HEAD 
                                                   Max.-Head-Change                        Max.-Flux-Residual
  Residual-Control   Outer-Iter.   Inner-Iter.     Column Row Layer    Max.-Head-Change    Column Row Layer    Max.-Flux-Residual            L2-New               L2-Old           Solver-Max-Delh
          0                 1           2            11    6     1      -0.2897340048E+02       8    8    1       0.1930520024E+04      0.7999318139E+04      0.5947974206E+02     -0.2897340048E+02
          0                 2           2            11    6     1       0.1072985921E+02       8    8    1       0.1680380360E+04      0.1884483742E+04      0.7999318139E+04      0.1072985921E+02
          0                 3           2            11    6     1       0.5364984293E+00       8    8    1      -0.1722566305E+03      0.1813123405E+03      0.1884483742E+04      0.5364984293E+00
          0                 4           2            11    6     1       0.2681982520E-01       8    8    1      -0.8612813108E+01      0.9065495571E+01      0.1813123405E+03      0.2681982520E-01

    ------------------------------------------------
       NWT REQUIRED            4 OUTER ITERATIONS 
       AND A TOTAL OF          8 INNER ITERATIONS.
    ------------------------------------------------

 OUTPUT CONTROL FOR STRESS PERIOD    1   TIME STEP  365
    SAVE HEAD FOR ALL LAYERS
    SAVE DRAWDOWN FOR ALL LAYERS
    SAVE BUDGET
    PRINT BUDGET
 UBDSV1 SAVING "         STORAGE" ON UNIT   9 AT TIME STEP365, STRESS PERIOD   1
 UBDSV2 SAVING "   CONSTANT HEAD" ON UNIT   9 AT TIME STEP365, STRESS PERIOD   1
 UBDSV1 SAVING "FLOW RIGHT FACE " ON UNIT   9 AT TIME STEP365, STRESS PERIOD   1
 UBDSV1 SAVING "FLOW FRONT FACE " ON UNIT   9 AT TIME STEP365, STRESS PERIOD   1
 UBDSV4 SAVING "   RIVER LEAKAGE" ON UNIT   9 AT TIME STEP365, STRESS PERIOD   1
 UBDSV3 SAVING "        RECHARGE" ON UNIT   9 AT TIME STEP365, STRESS PERIOD   1

 HEAD WILL BE SAVED ON UNIT 5037 AT END OF TIME STEP  365, STRESS PERIOD    1

 DRAWDOWN WILL BE SAVED ON UNIT   38 AT END OF TIME STEP  365, STRESS PERIOD    1
1
  VOLUMETRIC BUDGET FOR ENTIRE MODEL AT END OF TIME STEP  365, STRESS PERIOD   1
  ------------------------------------------------------------------------------

     CUMULATIVE VOLUMES      L**3       RATES FOR THIS TIME STEP      L**3/T
     ------------------                 ------------------------

           IN:                                      IN:
           ---                                      ---
             STORAGE =    17552912.0000               STORAGE =       88897.3594
       CONSTANT HEAD =           0.0000         CONSTANT HEAD =           0.0000
       RIVER LEAKAGE =     2076852.1250         RIVER LEAKAGE =        4039.5435
            RECHARGE =    25580570.0000              RECHARGE =        9306.8271

            TOTAL IN =    45210336.0000              TOTAL IN =      102243.7344

          OUT:                                     OUT:
          ----                                     ----
             STORAGE =    20183254.0000               STORAGE =       33402.7852
       CONSTANT HEAD =           0.0000         CONSTANT HEAD =           0.0000
       RIVER LEAKAGE =    25008102.0000         RIVER LEAKAGE =       68840.4922
            RECHARGE =           0.0000              RECHARGE =           0.0000

           TOTAL OUT =    45191356.0000             TOTAL OUT =      102243.2812

            IN - OUT =       18980.0000              IN - OUT =           0.4531

 PERCENT DISCREPANCY =           0.04     PERCENT DISCREPANCY =           0.00






         TIME SUMMARY AT END OF TIME STEP  365 IN STRESS PERIOD    1
                    SECONDS     MINUTES      HOURS       DAYS        YEARS
                    -----------------------------------------------------------
   TIME STEP LENGTH  86400.      1440.0      24.000      1.0000     2.73785E-03
 STRESS PERIOD TIME 3.15360E+07 5.25600E+05  8760.0      365.00     0.99932    
         TOTAL TIME 3.15360E+07 5.25600E+05  8760.0      365.00     0.99932    
1
